version 2
run OLSR-ETX-FS-10n-0-20151019-20:49:39-16475
attr configname OLSR-ETX-FS-10n
attr datetime 20151019-20:49:39
attr experiment OLSR-ETX-FS-10n
attr inifile omnetpp.ini
attr iterationvars ""
attr iterationvars2 $repetition=0
attr measurement ""
attr network Prj_Part2.scenarioPRJP2
attr processid 16475
attr repetition 0
attr replication #0
attr resultdir results
attr runnumber 0
attr seedset 0

scalar scenarioPRJP2.radioMedium.propagation 	"Arrival computation count" 	124461
scalar scenarioPRJP2.radioMedium 	"transmission count" 	13829
scalar scenarioPRJP2.radioMedium 	"radio frame send count" 	124461
scalar scenarioPRJP2.radioMedium 	"reception computation count" 	124379
scalar scenarioPRJP2.radioMedium 	"interference computation count" 	384493
scalar scenarioPRJP2.radioMedium 	"reception decision computation count" 	16331
scalar scenarioPRJP2.radioMedium 	"listening decision computation count" 	244277
scalar scenarioPRJP2.radioMedium 	"reception cache hit" 	70.214044868479
attr unit  %
scalar scenarioPRJP2.radioMedium 	"interference cache hit" 	50
attr unit  %
scalar scenarioPRJP2.radioMedium 	"noise cache hit" 	0
attr unit  %
scalar scenarioPRJP2.radioMedium 	"snir cache hit" 	0
attr unit  %
scalar scenarioPRJP2.radioMedium 	"reception decision cache hit" 	0
attr unit  %
scalar scenarioPRJP2.node[0].app 	"Total sent" 	541
scalar scenarioPRJP2.node[0].app 	"Total received" 	42
scalar scenarioPRJP2.node[0].app 	"Total deleted" 	0
scalar scenarioPRJP2.node[0].app 	dropPk:count 	0
attr interpolationmode  none
attr source  dropPk
attr title  "packets dropped, count"
scalar scenarioPRJP2.node[0].app 	dropPk:sum(packetBytes) 	0
attr interpolationmode  none
attr source  dropPk
attr title  "packets dropped, sum(packetBytes)"
scalar scenarioPRJP2.node[0].app 	outOfOrderPk:count 	0
attr interpolationmode  none
attr source  outOfOrderPk
attr title  "packets received out of order, count"
scalar scenarioPRJP2.node[0].app 	outOfOrderPk:sum(packetBytes) 	0
attr interpolationmode  none
attr source  outOfOrderPk
attr title  "packets received out of order, sum(packetBytes)"
scalar scenarioPRJP2.node[0].app 	rcvdPk:count 	42
attr interpolationmode  none
attr source  rcvdPk
attr title  "packets received, count"
scalar scenarioPRJP2.node[0].app 	rcvdPk:sum(packetBytes) 	21504
attr interpolationmode  none
attr source  rcvdPk
attr title  "packets received, sum(packetBytes)"
statistic scenarioPRJP2.node[0].app 	endToEndDelay:histogram
field count 42
field mean 0.0011017092687143
field stddev 0.00018794996354018
field sum 0.046271789286
field sqrsum 5.2426391876966e-05
field min 0.0009723925
field max 0.002211492753
attr interpolationmode  none
attr source  messageAge(rcvdPk)
attr title  "delay, histogram"
attr unit  s
bin	-INF	0
bin	0.0003528423735	0
bin	0.00043544905703333	0
bin	0.00051805574056667	0
bin	0.0006006624241	0
bin	0.00068326910763333	0
bin	0.00076587579116667	0
bin	0.0008484824747	0
bin	0.00093108915823333	10
bin	0.0010136958417667	15
bin	0.0010963025253	12
bin	0.0011789092088333	4
bin	0.0012615158923667	0
bin	0.0013441225759	0
bin	0.0014267292594333	0
bin	0.0015093359429667	0
bin	0.0015919426265	0
bin	0.0016745493100333	0
bin	0.0017571559935667	0
bin	0.0018397626771	0
bin	0.0019223693606333	0
bin	0.0020049760441667	0
bin	0.0020875827277	0
bin	0.0021701894112333	1
bin	0.0022527960947667	0
bin	0.0023354027783	0
bin	0.0024180094618333	0
bin	0.0025006161453667	0
bin	0.0025832228289	0
bin	0.0026658295124333	0
bin	0.0027484361959667	0
bin	0.0028310428795	0
scalar scenarioPRJP2.node[0].app 	sentPk:count 	541
attr interpolationmode  none
attr source  sentPk
attr title  "packets sent, count"
scalar scenarioPRJP2.node[0].app 	sentPk:sum(packetBytes) 	276992
attr interpolationmode  none
attr source  sentPk
attr title  "packets sent, sum(packetBytes)"
scalar scenarioPRJP2.node[0].udp 	droppedPkBadChecksum:count 	0
attr interpolationmode  none
attr title  "packets dropped (checksum error), count"
scalar scenarioPRJP2.node[0].udp 	droppedPkWrongPort:count 	0
attr interpolationmode  none
attr title  "packets dropped (wrong port), count"
scalar scenarioPRJP2.node[0].udp 	passedUpPk:count 	42
attr interpolationmode  none
attr title  "packets passed up, count"
scalar scenarioPRJP2.node[0].udp 	rcvdPk:count 	42
attr interpolationmode  none
attr source  rcvdPk
attr title  "packets received, count"
scalar scenarioPRJP2.node[0].udp 	rcvdPk:sum(packetBytes) 	21840
attr interpolationmode  none
attr source  rcvdPk
attr title  "packets received, sum(packetBytes)"
scalar scenarioPRJP2.node[0].udp 	sentPk:count 	541
attr interpolationmode  none
attr source  sentPk
attr title  "packets sent, count"
scalar scenarioPRJP2.node[0].udp 	sentPk:sum(packetBytes) 	281320
attr interpolationmode  none
attr source  sentPk
attr title  "packets sent, sum(packetBytes)"
scalar scenarioPRJP2.node[0].networkLayer.arp 	failedARPResolution:count 	0
attr title  "ARP failed resolutions, count"
scalar scenarioPRJP2.node[0].networkLayer.arp 	completedARPResolution:count 	18
attr title  "ARP completed resolutions, count"
scalar scenarioPRJP2.node[0].networkLayer.arp 	initiatedARPResolution:count 	5
attr title  "ARP initiated resolutions, count"
scalar scenarioPRJP2.node[0].networkLayer.arp 	sentReply:count 	5
attr title  "ARP replies sent, count"
scalar scenarioPRJP2.node[0].networkLayer.arp 	sentReq:count 	5
attr title  "ARP request sent, count"
scalar scenarioPRJP2.node[0].mobility 	startTime 	0.1
scalar scenarioPRJP2.node[0].mobility 	totalTime 	649.9
scalar scenarioPRJP2.node[0].mobility 	stopTime 	650
scalar scenarioPRJP2.node[0].mobility 	minSpeed 	5.8670813587507e-14
scalar scenarioPRJP2.node[0].mobility 	maxSpeed 	11.109923564079
scalar scenarioPRJP2.node[0].mobility 	totalDistance 	4059.9121813919
scalar scenarioPRJP2.node[0].mobility 	totalCO2Emission 	1266.2115359067
scalar scenarioPRJP2.node[0].wlan.mgmt 	dataQueueLen:max 	0
attr interpolationmode  sample-hold
attr title  "data queue length, max"
scalar scenarioPRJP2.node[0].wlan.mgmt 	dataQueueLen:timeavg 	0
attr interpolationmode  sample-hold
attr title  "data queue length, timeavg"
scalar scenarioPRJP2.node[0].wlan.mgmt 	dropPkByQueue:count 	0
attr interpolationmode  none
attr source  dropPkByQueue
attr title  "packets dropped by queue, count"
scalar scenarioPRJP2.node[0].wlan.mgmt 	dropPkByQueue:sum(packetBytes) 	0
attr interpolationmode  none
attr source  dropPkByQueue
attr title  "packets dropped by queue, sum(packetBytes)"
scalar scenarioPRJP2.node[0].wlan.mac 	"number of received packets" 	84
scalar scenarioPRJP2.node[0].wlan.mac 	"number of collisions" 	8
scalar scenarioPRJP2.node[0].wlan.mac 	"number of internal collisions" 	0
scalar scenarioPRJP2.node[0].wlan.mac 	"number of retry for AC 0" 	150
scalar scenarioPRJP2.node[0].wlan.mac 	"number of retry for AC 1" 	6
scalar scenarioPRJP2.node[0].wlan.mac 	"number of retry for AC 2" 	0
scalar scenarioPRJP2.node[0].wlan.mac 	"number of retry for AC 3" 	0
scalar scenarioPRJP2.node[0].wlan.mac 	"sent and received bits" 	9771296
scalar scenarioPRJP2.node[0].wlan.mac 	"sent packet within AC 0" 	140
scalar scenarioPRJP2.node[0].wlan.mac 	"sent packet within AC 1" 	3
scalar scenarioPRJP2.node[0].wlan.mac 	"sent packet within AC 2" 	0
scalar scenarioPRJP2.node[0].wlan.mac 	"sent packet within AC 3" 	0
scalar scenarioPRJP2.node[0].wlan.mac 	"sent in TXOP " 	0
scalar scenarioPRJP2.node[0].wlan.mac 	"sentWithoutRetry AC 0" 	140
scalar scenarioPRJP2.node[0].wlan.mac 	"sentWithoutRetry AC 1" 	3
scalar scenarioPRJP2.node[0].wlan.mac 	"sentWithoutRetry AC 2" 	0
scalar scenarioPRJP2.node[0].wlan.mac 	"sentWithoutRetry AC 3" 	0
scalar scenarioPRJP2.node[0].wlan.mac 	"numGivenUp AC 0" 	25
scalar scenarioPRJP2.node[0].wlan.mac 	"numGivenUp AC 1" 	1
scalar scenarioPRJP2.node[0].wlan.mac 	"numGivenUp AC 2" 	0
scalar scenarioPRJP2.node[0].wlan.mac 	"numGivenUp AC 3" 	0
scalar scenarioPRJP2.node[0].wlan.mac 	"numDropped AC 0" 	0
scalar scenarioPRJP2.node[0].wlan.mac 	"numDropped AC 1" 	0
scalar scenarioPRJP2.node[0].wlan.mac 	"numDropped AC 2" 	0
scalar scenarioPRJP2.node[0].wlan.mac 	"numDropped AC 3" 	0
scalar scenarioPRJP2.node[0].wlan.mac 	rcvdPkFromLL:count 	2177
attr interpolationmode  none
attr source  packetReceivedFromLower
attr title  "packets received from lower layer, count"
scalar scenarioPRJP2.node[0].wlan.mac 	rcvdPkFromLL:sum(packetBytes) 	1886538
attr interpolationmode  none
attr source  packetReceivedFromLower
attr title  "packets received from lower layer, sum(packetBytes)"
scalar scenarioPRJP2.node[0].wlan.mac 	sentDownPk:count 	1488
attr interpolationmode  none
attr source  packetSentToLower
attr title  "packets sent to lower layer, count"
scalar scenarioPRJP2.node[0].wlan.mac 	sentDownPk:sum(packetBytes) 	1324032
attr interpolationmode  none
attr source  packetSentToLower
attr title  "packets sent to lower layer, sum(packetBytes)"
scalar scenarioPRJP2.node[0].wlan.mac 	rcvdPkFromHL:count 	1248
attr interpolationmode  none
attr source  packetReceivedFromUpper
attr title  "packets received from higher layer, count"
scalar scenarioPRJP2.node[0].wlan.mac 	rcvdPkFromHL:sum(packetBytes) 	1235904
attr interpolationmode  none
attr source  packetReceivedFromUpper
attr title  "packets received from higher layer, sum(packetBytes)"
scalar scenarioPRJP2.node[0].wlan.mac 	passedUpPk:count 	1645
attr interpolationmode  none
attr source  packetSentToUpper
attr title  "packets passed to higher layer, count"
scalar scenarioPRJP2.node[0].wlan.mac 	passedUpPk:sum(packetBytes) 	1689792
attr interpolationmode  none
attr source  packetSentToUpper
attr title  "packets passed to higher layer, sum(packetBytes)"
statistic scenarioPRJP2.node[0].wlan.radio 	radioChannel:histogram
field count 1
field mean 3
field stddev -nan
field sum 3
field sqrsum 9
field min 3
field max 3
attr interpolationmode  sample-hold
attr source  radioChannelChanged
attr title  "Radio channel, histogram"
bin	-INF	0
bin	2	0
bin	3	1
bin	4	0
scalar scenarioPRJP2.node[0].wlan.radio 	transmissionState:count 	5952
attr interpolationmode  sample-hold
attr source  transmissionStateChanged
attr title  "Radio transmission state, count"
scalar scenarioPRJP2.node[0].wlan.radio 	receptionState:count 	7331
attr interpolationmode  sample-hold
attr source  receptionStateChanged
attr title  "Radio reception state, count"
scalar scenarioPRJP2.node[0].wlan.radio 	radioMode:count 	2978
attr interpolationmode  sample-hold
attr source  radioModeChanged
attr title  "Radio mode, count"
statistic scenarioPRJP2.node[0].wlan.radio 	symbolErrorRate:histogram
field count 0
field mean -nan
field stddev -nan
field sum 0
field sqrsum 0
field min -nan
field max -nan
attr source  symbolErrorRate
attr title  "Symbol error rate, histogram"
bin	-INF	0
bin	-0.5	0
bin	-0.46666666666667	0
bin	-0.43333333333333	0
bin	-0.4	0
bin	-0.36666666666667	0
bin	-0.33333333333333	0
bin	-0.3	0
bin	-0.26666666666667	0
bin	-0.23333333333333	0
bin	-0.2	0
bin	-0.16666666666667	0
bin	-0.13333333333333	0
bin	-0.1	0
bin	-0.066666666666667	0
bin	-0.033333333333333	0
bin	0	0
bin	0.033333333333333	0
bin	0.066666666666667	0
bin	0.1	0
bin	0.13333333333333	0
bin	0.16666666666667	0
bin	0.2	0
bin	0.23333333333333	0
bin	0.26666666666667	0
bin	0.3	0
bin	0.33333333333333	0
bin	0.36666666666667	0
bin	0.4	0
bin	0.43333333333333	0
bin	0.46666666666667	0
bin	0.5	0
statistic scenarioPRJP2.node[0].wlan.radio 	bitErrorRate:histogram
field count 0
field mean -nan
field stddev -nan
field sum 0
field sqrsum 0
field min -nan
field max -nan
attr source  bitErrorRate
attr title  "Bit error rate, histogram"
bin	-INF	0
bin	-0.5	0
bin	-0.46666666666667	0
bin	-0.43333333333333	0
bin	-0.4	0
bin	-0.36666666666667	0
bin	-0.33333333333333	0
bin	-0.3	0
bin	-0.26666666666667	0
bin	-0.23333333333333	0
bin	-0.2	0
bin	-0.16666666666667	0
bin	-0.13333333333333	0
bin	-0.1	0
bin	-0.066666666666667	0
bin	-0.033333333333333	0
bin	0	0
bin	0.033333333333333	0
bin	0.066666666666667	0
bin	0.1	0
bin	0.13333333333333	0
bin	0.16666666666667	0
bin	0.2	0
bin	0.23333333333333	0
bin	0.26666666666667	0
bin	0.3	0
bin	0.33333333333333	0
bin	0.36666666666667	0
bin	0.4	0
bin	0.43333333333333	0
bin	0.46666666666667	0
bin	0.5	0
statistic scenarioPRJP2.node[0].wlan.radio 	packetErrorRate:histogram
field count 2177
field mean 0.0028087977326013
field stddev 0.0502674338639
field sum 6.114752663873
field sqrsum 5.5155243416189
field min 0
field max 1
attr source  packetErrorRate
attr title  "Packet error rate, histogram"
bin	-INF	0
bin	-0.0050494650859246	0
bin	-0.004376203074468	0
bin	-0.0037029410630114	0
bin	-0.0030296790515548	0
bin	-0.0023564170400982	0
bin	-0.0016831550286415	0
bin	-0.0010098930171849	0
bin	-0.00033663100572831	2163
bin	0.00033663100572831	0
bin	0.0010098930171849	0
bin	0.0016831550286415	0
bin	0.0023564170400982	0
bin	0.0030296790515548	0
bin	0.0037029410630114	1
bin	0.004376203074468	1
bin	0.0050494650859246	0
bin	0.0057227270973812	0
bin	0.0063959891088379	0
bin	0.0070692511202945	0
bin	0.0077425131317511	0
bin	0.0084157751432077	0
bin	0.0090890371546643	0
bin	0.009762299166121	2
bin	0.010435561177578	0
bin	0.011108823189034	0
bin	0.011782085200491	0
bin	0.012455347211947	0
bin	0.013128609223404	0
bin	0.013801871234861	0
bin	0.014475133246317	0
bin	0.015148395257774	10
statistic scenarioPRJP2.node[0].wlan.radio 	minSNIR:histogram
field count 2177
field mean 62211.685375041
field stddev 189651.82138203
field sum 135434839.06147
field sqrsum 86691591453774
field min 0.65630852166147
field max 768813.81517296
attr source  minSNIR
attr title  "Min SNIR, histogram"
bin	-INF	0
bin	-237268.91536511	0
bin	-205632.68441917	0
bin	-173996.45347324	0
bin	-142360.2225273	0
bin	-110723.99158137	0
bin	-79087.760635434	0
bin	-47451.5296895	0
bin	-15815.298743565	1739
bin	15820.932202369	194
bin	47457.163148304	25
bin	79093.394094238	12
bin	110729.62504017	13
bin	142365.85598611	15
bin	174002.08693204	6
bin	205638.31787798	2
bin	237274.54882391	0
bin	268910.77976985	0
bin	300547.01071578	0
bin	332183.24166171	0
bin	363819.47260765	2
bin	395455.70355358	0
bin	427091.93449952	0
bin	458728.16544545	2
bin	490364.39639139	0
bin	522000.62733732	4
bin	553636.85828326	0
bin	585273.08922919	36
bin	616909.32017513	6
bin	648545.55112106	0
bin	680181.78206699	4
bin	711818.01301293	117
scalar scenarioPRJP2.node[0].lo0.lo 	droppedPkBitError:count 	0
attr interpolationmode  none
attr source  dropPkBitError
attr title  "packets dropped/bit error, count"
scalar scenarioPRJP2.node[0].lo0.lo 	droppedPkBitError:sum(packetBytes) 	0
attr interpolationmode  none
attr source  dropPkBitError
attr title  "packets dropped/bit error, sum(packetBytes)"
scalar scenarioPRJP2.node[0].lo0.lo 	rcvdPkFromHL:count 	0
attr interpolationmode  none
attr source  packetReceivedFromUpper
attr title  "packets received from higher layer, count"
scalar scenarioPRJP2.node[0].lo0.lo 	rcvdPkFromHL:sum(packetBytes) 	0
attr interpolationmode  none
attr source  packetReceivedFromUpper
attr title  "packets received from higher layer, sum(packetBytes)"
scalar scenarioPRJP2.node[0].lo0.lo 	passedUpPk:count 	0
attr interpolationmode  none
attr source  packetSentToUpper
attr title  "packets passed to higher layer, count"
scalar scenarioPRJP2.node[0].lo0.lo 	passedUpPk:sum(packetBytes) 	0
attr interpolationmode  none
attr source  packetSentToUpper
attr title  "packets passed to higher layer, sum(packetBytes)"
scalar scenarioPRJP2.node[1].app 	"Total sent" 	544
scalar scenarioPRJP2.node[1].app 	"Total received" 	81
scalar scenarioPRJP2.node[1].app 	"Total deleted" 	0
scalar scenarioPRJP2.node[1].app 	dropPk:count 	0
attr interpolationmode  none
attr source  dropPk
attr title  "packets dropped, count"
scalar scenarioPRJP2.node[1].app 	dropPk:sum(packetBytes) 	0
attr interpolationmode  none
attr source  dropPk
attr title  "packets dropped, sum(packetBytes)"
scalar scenarioPRJP2.node[1].app 	outOfOrderPk:count 	0
attr interpolationmode  none
attr source  outOfOrderPk
attr title  "packets received out of order, count"
scalar scenarioPRJP2.node[1].app 	outOfOrderPk:sum(packetBytes) 	0
attr interpolationmode  none
attr source  outOfOrderPk
attr title  "packets received out of order, sum(packetBytes)"
scalar scenarioPRJP2.node[1].app 	rcvdPk:count 	81
attr interpolationmode  none
attr source  rcvdPk
attr title  "packets received, count"
scalar scenarioPRJP2.node[1].app 	rcvdPk:sum(packetBytes) 	41472
attr interpolationmode  none
attr source  rcvdPk
attr title  "packets received, sum(packetBytes)"
statistic scenarioPRJP2.node[1].app 	endToEndDelay:histogram
field count 81
field mean 0.0016428253944691
field stddev 0.00092617734926604
field sum 0.133068856952
field sqrsum 0.0002872332559972
field min 0.000972642621
field max 0.006185238498
attr interpolationmode  none
attr source  messageAge(rcvdPk)
attr title  "delay, histogram"
attr unit  s
bin	-INF	0
bin	-0.0016336553175	0
bin	-0.0012861489257	0
bin	-0.0009386425339	0
bin	-0.0005911361421	0
bin	-0.0002436297503	0
bin	0.0001038766415	0
bin	0.0004513830333	0
bin	0.0007988894251	35
bin	0.0011463958169	18
bin	0.0014939022087	0
bin	0.0018414086005	8
bin	0.0021889149923	13
bin	0.0025364213841	0
bin	0.0028839277759	0
bin	0.0032314341677	4
bin	0.0035789405595	1
bin	0.0039264469513	0
bin	0.0042739533431	0
bin	0.0046214597349	1
bin	0.0049689661267	0
bin	0.0053164725185	0
bin	0.0056639789103	0
bin	0.0060114853021	1
bin	0.0063589916939	0
bin	0.0067064980857	0
bin	0.0070540044775	0
bin	0.0074015108693	0
bin	0.0077490172611	0
bin	0.0080965236529	0
bin	0.0084440300447	0
bin	0.0087915364365	0
scalar scenarioPRJP2.node[1].app 	sentPk:count 	544
attr interpolationmode  none
attr source  sentPk
attr title  "packets sent, count"
scalar scenarioPRJP2.node[1].app 	sentPk:sum(packetBytes) 	278528
attr interpolationmode  none
attr source  sentPk
attr title  "packets sent, sum(packetBytes)"
scalar scenarioPRJP2.node[1].udp 	droppedPkBadChecksum:count 	0
attr interpolationmode  none
attr title  "packets dropped (checksum error), count"
scalar scenarioPRJP2.node[1].udp 	droppedPkWrongPort:count 	0
attr interpolationmode  none
attr title  "packets dropped (wrong port), count"
scalar scenarioPRJP2.node[1].udp 	passedUpPk:count 	81
attr interpolationmode  none
attr title  "packets passed up, count"
scalar scenarioPRJP2.node[1].udp 	rcvdPk:count 	81
attr interpolationmode  none
attr source  rcvdPk
attr title  "packets received, count"
scalar scenarioPRJP2.node[1].udp 	rcvdPk:sum(packetBytes) 	42120
attr interpolationmode  none
attr source  rcvdPk
attr title  "packets received, sum(packetBytes)"
scalar scenarioPRJP2.node[1].udp 	sentPk:count 	544
attr interpolationmode  none
attr source  sentPk
attr title  "packets sent, count"
scalar scenarioPRJP2.node[1].udp 	sentPk:sum(packetBytes) 	282880
attr interpolationmode  none
attr source  sentPk
attr title  "packets sent, sum(packetBytes)"
scalar scenarioPRJP2.node[1].networkLayer.arp 	failedARPResolution:count 	0
attr title  "ARP failed resolutions, count"
scalar scenarioPRJP2.node[1].networkLayer.arp 	completedARPResolution:count 	16
attr title  "ARP completed resolutions, count"
scalar scenarioPRJP2.node[1].networkLayer.arp 	initiatedARPResolution:count 	8
attr title  "ARP initiated resolutions, count"
scalar scenarioPRJP2.node[1].networkLayer.arp 	sentReply:count 	3
attr title  "ARP replies sent, count"
scalar scenarioPRJP2.node[1].networkLayer.arp 	sentReq:count 	9
attr title  "ARP request sent, count"
scalar scenarioPRJP2.node[1].mobility 	startTime 	0.1
scalar scenarioPRJP2.node[1].mobility 	totalTime 	649.9
scalar scenarioPRJP2.node[1].mobility 	stopTime 	650
scalar scenarioPRJP2.node[1].mobility 	minSpeed 	5.8537641887667e-14
scalar scenarioPRJP2.node[1].mobility 	maxSpeed 	11.109971026396
scalar scenarioPRJP2.node[1].mobility 	totalDistance 	4384.2559776059
scalar scenarioPRJP2.node[1].mobility 	totalCO2Emission 	1291.9987878925
scalar scenarioPRJP2.node[1].wlan.mgmt 	dataQueueLen:max 	0
attr interpolationmode  sample-hold
attr title  "data queue length, max"
scalar scenarioPRJP2.node[1].wlan.mgmt 	dataQueueLen:timeavg 	0
attr interpolationmode  sample-hold
attr title  "data queue length, timeavg"
scalar scenarioPRJP2.node[1].wlan.mgmt 	dropPkByQueue:count 	0
attr interpolationmode  none
attr source  dropPkByQueue
attr title  "packets dropped by queue, count"
scalar scenarioPRJP2.node[1].wlan.mgmt 	dropPkByQueue:sum(packetBytes) 	0
attr interpolationmode  none
attr source  dropPkByQueue
attr title  "packets dropped by queue, sum(packetBytes)"
scalar scenarioPRJP2.node[1].wlan.mac 	"number of received packets" 	139
scalar scenarioPRJP2.node[1].wlan.mac 	"number of collisions" 	14
scalar scenarioPRJP2.node[1].wlan.mac 	"number of internal collisions" 	0
scalar scenarioPRJP2.node[1].wlan.mac 	"number of retry for AC 0" 	36
scalar scenarioPRJP2.node[1].wlan.mac 	"number of retry for AC 1" 	0
scalar scenarioPRJP2.node[1].wlan.mac 	"number of retry for AC 2" 	0
scalar scenarioPRJP2.node[1].wlan.mac 	"number of retry for AC 3" 	0
scalar scenarioPRJP2.node[1].wlan.mac 	"sent and received bits" 	10034336
scalar scenarioPRJP2.node[1].wlan.mac 	"sent packet within AC 0" 	125
scalar scenarioPRJP2.node[1].wlan.mac 	"sent packet within AC 1" 	0
scalar scenarioPRJP2.node[1].wlan.mac 	"sent packet within AC 2" 	0
scalar scenarioPRJP2.node[1].wlan.mac 	"sent packet within AC 3" 	0
scalar scenarioPRJP2.node[1].wlan.mac 	"sent in TXOP " 	0
scalar scenarioPRJP2.node[1].wlan.mac 	"sentWithoutRetry AC 0" 	125
scalar scenarioPRJP2.node[1].wlan.mac 	"sentWithoutRetry AC 1" 	0
scalar scenarioPRJP2.node[1].wlan.mac 	"sentWithoutRetry AC 2" 	0
scalar scenarioPRJP2.node[1].wlan.mac 	"sentWithoutRetry AC 3" 	0
scalar scenarioPRJP2.node[1].wlan.mac 	"numGivenUp AC 0" 	6
scalar scenarioPRJP2.node[1].wlan.mac 	"numGivenUp AC 1" 	0
scalar scenarioPRJP2.node[1].wlan.mac 	"numGivenUp AC 2" 	0
scalar scenarioPRJP2.node[1].wlan.mac 	"numGivenUp AC 3" 	0
scalar scenarioPRJP2.node[1].wlan.mac 	"numDropped AC 0" 	0
scalar scenarioPRJP2.node[1].wlan.mac 	"numDropped AC 1" 	0
scalar scenarioPRJP2.node[1].wlan.mac 	"numDropped AC 2" 	0
scalar scenarioPRJP2.node[1].wlan.mac 	"numDropped AC 3" 	0
scalar scenarioPRJP2.node[1].wlan.mac 	rcvdPkFromLL:count 	2349
attr interpolationmode  none
attr source  packetReceivedFromLower
attr title  "packets received from lower layer, count"
scalar scenarioPRJP2.node[1].wlan.mac 	rcvdPkFromLL:sum(packetBytes) 	2023170
attr interpolationmode  none
attr source  packetReceivedFromLower
attr title  "packets received from lower layer, sum(packetBytes)"
scalar scenarioPRJP2.node[1].wlan.mac 	sentDownPk:count 	1428
attr interpolationmode  none
attr source  packetSentToLower
attr title  "packets sent to lower layer, count"
scalar scenarioPRJP2.node[1].wlan.mac 	sentDownPk:sum(packetBytes) 	1280430
attr interpolationmode  none
attr source  packetSentToLower
attr title  "packets sent to lower layer, sum(packetBytes)"
scalar scenarioPRJP2.node[1].wlan.mac 	rcvdPkFromHL:count 	1253
attr interpolationmode  none
attr source  packetReceivedFromUpper
attr title  "packets received from higher layer, count"
scalar scenarioPRJP2.node[1].wlan.mac 	rcvdPkFromHL:sum(packetBytes) 	1257748
attr interpolationmode  none
attr source  packetReceivedFromUpper
attr title  "packets received from higher layer, sum(packetBytes)"
scalar scenarioPRJP2.node[1].wlan.mac 	passedUpPk:count 	1807
attr interpolationmode  none
attr source  packetSentToUpper
attr title  "packets passed to higher layer, count"
scalar scenarioPRJP2.node[1].wlan.mac 	passedUpPk:sum(packetBytes) 	1838752
attr interpolationmode  none
attr source  packetSentToUpper
attr title  "packets passed to higher layer, sum(packetBytes)"
statistic scenarioPRJP2.node[1].wlan.radio 	radioChannel:histogram
field count 1
field mean 3
field stddev -nan
field sum 3
field sqrsum 9
field min 3
field max 3
attr interpolationmode  sample-hold
attr source  radioChannelChanged
attr title  "Radio channel, histogram"
bin	-INF	0
bin	2	0
bin	3	1
bin	4	0
scalar scenarioPRJP2.node[1].wlan.radio 	transmissionState:count 	5712
attr interpolationmode  sample-hold
attr source  transmissionStateChanged
attr title  "Radio transmission state, count"
scalar scenarioPRJP2.node[1].wlan.radio 	receptionState:count 	7556
attr interpolationmode  sample-hold
attr source  receptionStateChanged
attr title  "Radio reception state, count"
scalar scenarioPRJP2.node[1].wlan.radio 	radioMode:count 	2858
attr interpolationmode  sample-hold
attr source  radioModeChanged
attr title  "Radio mode, count"
statistic scenarioPRJP2.node[1].wlan.radio 	symbolErrorRate:histogram
field count 0
field mean -nan
field stddev -nan
field sum 0
field sqrsum 0
field min -nan
field max -nan
attr source  symbolErrorRate
attr title  "Symbol error rate, histogram"
bin	-INF	0
bin	-0.5	0
bin	-0.46666666666667	0
bin	-0.43333333333333	0
bin	-0.4	0
bin	-0.36666666666667	0
bin	-0.33333333333333	0
bin	-0.3	0
bin	-0.26666666666667	0
bin	-0.23333333333333	0
bin	-0.2	0
bin	-0.16666666666667	0
bin	-0.13333333333333	0
bin	-0.1	0
bin	-0.066666666666667	0
bin	-0.033333333333333	0
bin	0	0
bin	0.033333333333333	0
bin	0.066666666666667	0
bin	0.1	0
bin	0.13333333333333	0
bin	0.16666666666667	0
bin	0.2	0
bin	0.23333333333333	0
bin	0.26666666666667	0
bin	0.3	0
bin	0.33333333333333	0
bin	0.36666666666667	0
bin	0.4	0
bin	0.43333333333333	0
bin	0.46666666666667	0
bin	0.5	0
statistic scenarioPRJP2.node[1].wlan.radio 	bitErrorRate:histogram
field count 0
field mean -nan
field stddev -nan
field sum 0
field sqrsum 0
field min -nan
field max -nan
attr source  bitErrorRate
attr title  "Bit error rate, histogram"
bin	-INF	0
bin	-0.5	0
bin	-0.46666666666667	0
bin	-0.43333333333333	0
bin	-0.4	0
bin	-0.36666666666667	0
bin	-0.33333333333333	0
bin	-0.3	0
bin	-0.26666666666667	0
bin	-0.23333333333333	0
bin	-0.2	0
bin	-0.16666666666667	0
bin	-0.13333333333333	0
bin	-0.1	0
bin	-0.066666666666667	0
bin	-0.033333333333333	0
bin	0	0
bin	0.033333333333333	0
bin	0.066666666666667	0
bin	0.1	0
bin	0.13333333333333	0
bin	0.16666666666667	0
bin	0.2	0
bin	0.23333333333333	0
bin	0.26666666666667	0
bin	0.3	0
bin	0.33333333333333	0
bin	0.36666666666667	0
bin	0.4	0
bin	0.43333333333333	0
bin	0.46666666666667	0
bin	0.5	0
statistic scenarioPRJP2.node[1].wlan.radio 	packetErrorRate:histogram
field count 2349
field mean 0.0041880623407474
field stddev 0.059142258952163
field sum 9.8377584384156
field sqrsum 8.2540514978624
field min 0
field max 1
attr source  packetErrorRate
attr title  "Packet error rate, histogram"
bin	-INF	0
bin	-0.031640466292842	0
bin	-0.027421737453796	0
bin	-0.023203008614751	0
bin	-0.018984279775705	0
bin	-0.01476555093666	0
bin	-0.010546822097614	0
bin	-0.0063280932585684	0
bin	-0.0021093644195228	2331
bin	0.0021093644195228	0
bin	0.0063280932585684	0
bin	0.010546822097614	1
bin	0.01476555093666	0
bin	0.018984279775705	0
bin	0.023203008614751	0
bin	0.027421737453796	0
bin	0.031640466292842	1
bin	0.035859195131888	0
bin	0.040077923970933	0
bin	0.044296652809979	0
bin	0.048515381649024	0
bin	0.05273411048807	0
bin	0.056952839327116	0
bin	0.061171568166161	1
bin	0.065390297005207	0
bin	0.069609025844252	0
bin	0.073827754683298	0
bin	0.078046483522344	0
bin	0.082265212361389	0
bin	0.086483941200435	0
bin	0.09070267003948	0
bin	0.094921398878526	15
statistic scenarioPRJP2.node[1].wlan.radio 	minSNIR:histogram
field count 2349
field mean 85995.927236738
field stddev 216509.24323252
field sum 202004433.0791
field sqrsum 1.2743699917578e+14
field min 0.45097175044316
field max 769375.15860285
attr source  minSNIR
attr title  "Min SNIR, histogram"
bin	-INF	0
bin	-145728.29164075	0
bin	-126297.51794369	0
bin	-106866.74424662	0
bin	-87435.97054956	0
bin	-68005.196852498	0
bin	-48574.423155435	0
bin	-29143.649458372	0
bin	-9712.8757613095	1750
bin	9717.8979357533	150
bin	29148.671632816	46
bin	48579.445329879	20
bin	68010.219026941	16
bin	87440.992724004	19
bin	106871.76642107	6
bin	126302.54011813	5
bin	145733.31381519	14
bin	165164.08751225	65
bin	184594.86120932	0
bin	204025.63490638	0
bin	223456.40860344	3
bin	242887.18230051	2
bin	262317.95599757	0
bin	281748.72969463	6
bin	301179.50339169	0
bin	320610.27708876	0
bin	340041.05078582	0
bin	359471.82448288	0
bin	378902.59817994	1
bin	398333.37187701	0
bin	417764.14557407	0
bin	437194.91927113	246
scalar scenarioPRJP2.node[1].lo0.lo 	droppedPkBitError:count 	0
attr interpolationmode  none
attr source  dropPkBitError
attr title  "packets dropped/bit error, count"
scalar scenarioPRJP2.node[1].lo0.lo 	droppedPkBitError:sum(packetBytes) 	0
attr interpolationmode  none
attr source  dropPkBitError
attr title  "packets dropped/bit error, sum(packetBytes)"
scalar scenarioPRJP2.node[1].lo0.lo 	rcvdPkFromHL:count 	0
attr interpolationmode  none
attr source  packetReceivedFromUpper
attr title  "packets received from higher layer, count"
scalar scenarioPRJP2.node[1].lo0.lo 	rcvdPkFromHL:sum(packetBytes) 	0
attr interpolationmode  none
attr source  packetReceivedFromUpper
attr title  "packets received from higher layer, sum(packetBytes)"
scalar scenarioPRJP2.node[1].lo0.lo 	passedUpPk:count 	0
attr interpolationmode  none
attr source  packetSentToUpper
attr title  "packets passed to higher layer, count"
scalar scenarioPRJP2.node[1].lo0.lo 	passedUpPk:sum(packetBytes) 	0
attr interpolationmode  none
attr source  packetSentToUpper
attr title  "packets passed to higher layer, sum(packetBytes)"
scalar scenarioPRJP2.node[2].app 	"Total sent" 	542
scalar scenarioPRJP2.node[2].app 	"Total received" 	23
scalar scenarioPRJP2.node[2].app 	"Total deleted" 	0
scalar scenarioPRJP2.node[2].app 	dropPk:count 	0
attr interpolationmode  none
attr source  dropPk
attr title  "packets dropped, count"
scalar scenarioPRJP2.node[2].app 	dropPk:sum(packetBytes) 	0
attr interpolationmode  none
attr source  dropPk
attr title  "packets dropped, sum(packetBytes)"
scalar scenarioPRJP2.node[2].app 	outOfOrderPk:count 	0
attr interpolationmode  none
attr source  outOfOrderPk
attr title  "packets received out of order, count"
scalar scenarioPRJP2.node[2].app 	outOfOrderPk:sum(packetBytes) 	0
attr interpolationmode  none
attr source  outOfOrderPk
attr title  "packets received out of order, sum(packetBytes)"
scalar scenarioPRJP2.node[2].app 	rcvdPk:count 	23
attr interpolationmode  none
attr source  rcvdPk
attr title  "packets received, count"
scalar scenarioPRJP2.node[2].app 	rcvdPk:sum(packetBytes) 	11776
attr interpolationmode  none
attr source  rcvdPk
attr title  "packets received, sum(packetBytes)"
statistic scenarioPRJP2.node[2].app 	endToEndDelay:histogram
field count 23
field mean 0.001638660461913
field stddev 0.00058991026305958
field sum 0.037689190624
field sqrsum 6.9415657123239e-05
field min 0.000988383661
field max 0.002353254666
attr interpolationmode  none
attr source  messageAge(rcvdPk)
attr title  "delay, histogram"
attr unit  s
bin	-INF	0
bin	0.0003059481585	0
bin	0.00039693955883333	0
bin	0.00048793095916667	0
bin	0.0005789223595	0
bin	0.00066991375983333	0
bin	0.00076090516016667	0
bin	0.0008518965605	0
bin	0.00094288796083333	3
bin	0.0010338793611667	5
bin	0.0011248707615	4
bin	0.0012158621618333	0
bin	0.0013068535621667	0
bin	0.0013978449625	0
bin	0.0014888363628333	0
bin	0.0015798277631667	0
bin	0.0016708191635	0
bin	0.0017618105638333	0
bin	0.0018528019641667	1
bin	0.0019437933645	0
bin	0.0020347847648333	0
bin	0.0021257761651667	2
bin	0.0022167675655	6
bin	0.0023077589658333	2
bin	0.0023987503661667	0
bin	0.0024897417665	0
bin	0.0025807331668333	0
bin	0.0026717245671667	0
bin	0.0027627159675	0
bin	0.0028537073678333	0
bin	0.0029446987681667	0
bin	0.0030356901685	0
scalar scenarioPRJP2.node[2].app 	sentPk:count 	542
attr interpolationmode  none
attr source  sentPk
attr title  "packets sent, count"
scalar scenarioPRJP2.node[2].app 	sentPk:sum(packetBytes) 	277504
attr interpolationmode  none
attr source  sentPk
attr title  "packets sent, sum(packetBytes)"
scalar scenarioPRJP2.node[2].udp 	droppedPkBadChecksum:count 	0
attr interpolationmode  none
attr title  "packets dropped (checksum error), count"
scalar scenarioPRJP2.node[2].udp 	droppedPkWrongPort:count 	0
attr interpolationmode  none
attr title  "packets dropped (wrong port), count"
scalar scenarioPRJP2.node[2].udp 	passedUpPk:count 	23
attr interpolationmode  none
attr title  "packets passed up, count"
scalar scenarioPRJP2.node[2].udp 	rcvdPk:count 	23
attr interpolationmode  none
attr source  rcvdPk
attr title  "packets received, count"
scalar scenarioPRJP2.node[2].udp 	rcvdPk:sum(packetBytes) 	11960
attr interpolationmode  none
attr source  rcvdPk
attr title  "packets received, sum(packetBytes)"
scalar scenarioPRJP2.node[2].udp 	sentPk:count 	542
attr interpolationmode  none
attr source  sentPk
attr title  "packets sent, count"
scalar scenarioPRJP2.node[2].udp 	sentPk:sum(packetBytes) 	281840
attr interpolationmode  none
attr source  sentPk
attr title  "packets sent, sum(packetBytes)"
scalar scenarioPRJP2.node[2].networkLayer.arp 	failedARPResolution:count 	0
attr title  "ARP failed resolutions, count"
scalar scenarioPRJP2.node[2].networkLayer.arp 	completedARPResolution:count 	9
attr title  "ARP completed resolutions, count"
scalar scenarioPRJP2.node[2].networkLayer.arp 	initiatedARPResolution:count 	3
attr title  "ARP initiated resolutions, count"
scalar scenarioPRJP2.node[2].networkLayer.arp 	sentReply:count 	2
attr title  "ARP replies sent, count"
scalar scenarioPRJP2.node[2].networkLayer.arp 	sentReq:count 	3
attr title  "ARP request sent, count"
scalar scenarioPRJP2.node[2].mobility 	startTime 	0.1
scalar scenarioPRJP2.node[2].mobility 	totalTime 	649.9
scalar scenarioPRJP2.node[2].mobility 	stopTime 	650
scalar scenarioPRJP2.node[2].mobility 	minSpeed 	5.8666141698902e-14
scalar scenarioPRJP2.node[2].mobility 	maxSpeed 	11.109940700764
scalar scenarioPRJP2.node[2].mobility 	totalDistance 	5746.8396521012
scalar scenarioPRJP2.node[2].mobility 	totalCO2Emission 	1452.5144699272
scalar scenarioPRJP2.node[2].wlan.mgmt 	dataQueueLen:max 	0
attr interpolationmode  sample-hold
attr title  "data queue length, max"
scalar scenarioPRJP2.node[2].wlan.mgmt 	dataQueueLen:timeavg 	0
attr interpolationmode  sample-hold
attr title  "data queue length, timeavg"
scalar scenarioPRJP2.node[2].wlan.mgmt 	dropPkByQueue:count 	0
attr interpolationmode  none
attr source  dropPkByQueue
attr title  "packets dropped by queue, count"
scalar scenarioPRJP2.node[2].wlan.mgmt 	dropPkByQueue:sum(packetBytes) 	0
attr interpolationmode  none
attr source  dropPkByQueue
attr title  "packets dropped by queue, sum(packetBytes)"
scalar scenarioPRJP2.node[2].wlan.mac 	"number of received packets" 	38
scalar scenarioPRJP2.node[2].wlan.mac 	"number of collisions" 	3
scalar scenarioPRJP2.node[2].wlan.mac 	"number of internal collisions" 	0
scalar scenarioPRJP2.node[2].wlan.mac 	"number of retry for AC 0" 	2
scalar scenarioPRJP2.node[2].wlan.mac 	"number of retry for AC 1" 	0
scalar scenarioPRJP2.node[2].wlan.mac 	"number of retry for AC 2" 	0
scalar scenarioPRJP2.node[2].wlan.mac 	"number of retry for AC 3" 	0
scalar scenarioPRJP2.node[2].wlan.mac 	"sent and received bits" 	8468352
scalar scenarioPRJP2.node[2].wlan.mac 	"sent packet within AC 0" 	40
scalar scenarioPRJP2.node[2].wlan.mac 	"sent packet within AC 1" 	0
scalar scenarioPRJP2.node[2].wlan.mac 	"sent packet within AC 2" 	0
scalar scenarioPRJP2.node[2].wlan.mac 	"sent packet within AC 3" 	0
scalar scenarioPRJP2.node[2].wlan.mac 	"sent in TXOP " 	0
scalar scenarioPRJP2.node[2].wlan.mac 	"sentWithoutRetry AC 0" 	39
scalar scenarioPRJP2.node[2].wlan.mac 	"sentWithoutRetry AC 1" 	0
scalar scenarioPRJP2.node[2].wlan.mac 	"sentWithoutRetry AC 2" 	0
scalar scenarioPRJP2.node[2].wlan.mac 	"sentWithoutRetry AC 3" 	0
scalar scenarioPRJP2.node[2].wlan.mac 	"numGivenUp AC 0" 	0
scalar scenarioPRJP2.node[2].wlan.mac 	"numGivenUp AC 1" 	0
scalar scenarioPRJP2.node[2].wlan.mac 	"numGivenUp AC 2" 	0
scalar scenarioPRJP2.node[2].wlan.mac 	"numGivenUp AC 3" 	0
scalar scenarioPRJP2.node[2].wlan.mac 	"numDropped AC 0" 	0
scalar scenarioPRJP2.node[2].wlan.mac 	"numDropped AC 1" 	0
scalar scenarioPRJP2.node[2].wlan.mac 	"numDropped AC 2" 	0
scalar scenarioPRJP2.node[2].wlan.mac 	"numDropped AC 3" 	0
scalar scenarioPRJP2.node[2].wlan.mac 	rcvdPkFromLL:count 	780
attr interpolationmode  none
attr source  packetReceivedFromLower
attr title  "packets received from lower layer, count"
scalar scenarioPRJP2.node[2].wlan.mac 	rcvdPkFromLL:sum(packetBytes) 	579508
attr interpolationmode  none
attr source  packetReceivedFromLower
attr title  "packets received from lower layer, sum(packetBytes)"
scalar scenarioPRJP2.node[2].wlan.mac 	sentDownPk:count 	1057
attr interpolationmode  none
attr source  packetSentToLower
attr title  "packets sent to lower layer, count"
scalar scenarioPRJP2.node[2].wlan.mac 	sentDownPk:sum(packetBytes) 	1060228
attr interpolationmode  none
attr source  packetSentToLower
attr title  "packets sent to lower layer, sum(packetBytes)"
scalar scenarioPRJP2.node[2].wlan.mac 	rcvdPkFromHL:count 	1017
attr interpolationmode  none
attr source  packetReceivedFromUpper
attr title  "packets received from higher layer, count"
scalar scenarioPRJP2.node[2].wlan.mac 	rcvdPkFromHL:sum(packetBytes) 	1058544
attr interpolationmode  none
attr source  packetReceivedFromUpper
attr title  "packets received from higher layer, sum(packetBytes)"
scalar scenarioPRJP2.node[2].wlan.mac 	passedUpPk:count 	505
attr interpolationmode  none
attr source  packetSentToUpper
attr title  "packets passed to higher layer, count"
scalar scenarioPRJP2.node[2].wlan.mac 	passedUpPk:sum(packetBytes) 	509240
attr interpolationmode  none
attr source  packetSentToUpper
attr title  "packets passed to higher layer, sum(packetBytes)"
statistic scenarioPRJP2.node[2].wlan.radio 	radioChannel:histogram
field count 1
field mean 3
field stddev -nan
field sum 3
field sqrsum 9
field min 3
field max 3
attr interpolationmode  sample-hold
attr source  radioChannelChanged
attr title  "Radio channel, histogram"
bin	-INF	0
bin	2	0
bin	3	1
bin	4	0
scalar scenarioPRJP2.node[2].wlan.radio 	transmissionState:count 	4228
attr interpolationmode  sample-hold
attr source  transmissionStateChanged
attr title  "Radio transmission state, count"
scalar scenarioPRJP2.node[2].wlan.radio 	receptionState:count 	3676
attr interpolationmode  sample-hold
attr source  receptionStateChanged
attr title  "Radio reception state, count"
scalar scenarioPRJP2.node[2].wlan.radio 	radioMode:count 	2116
attr interpolationmode  sample-hold
attr source  radioModeChanged
attr title  "Radio mode, count"
statistic scenarioPRJP2.node[2].wlan.radio 	symbolErrorRate:histogram
field count 0
field mean -nan
field stddev -nan
field sum 0
field sqrsum 0
field min -nan
field max -nan
attr source  symbolErrorRate
attr title  "Symbol error rate, histogram"
bin	-INF	0
bin	-0.5	0
bin	-0.46666666666667	0
bin	-0.43333333333333	0
bin	-0.4	0
bin	-0.36666666666667	0
bin	-0.33333333333333	0
bin	-0.3	0
bin	-0.26666666666667	0
bin	-0.23333333333333	0
bin	-0.2	0
bin	-0.16666666666667	0
bin	-0.13333333333333	0
bin	-0.1	0
bin	-0.066666666666667	0
bin	-0.033333333333333	0
bin	0	0
bin	0.033333333333333	0
bin	0.066666666666667	0
bin	0.1	0
bin	0.13333333333333	0
bin	0.16666666666667	0
bin	0.2	0
bin	0.23333333333333	0
bin	0.26666666666667	0
bin	0.3	0
bin	0.33333333333333	0
bin	0.36666666666667	0
bin	0.4	0
bin	0.43333333333333	0
bin	0.46666666666667	0
bin	0.5	0
statistic scenarioPRJP2.node[2].wlan.radio 	bitErrorRate:histogram
field count 0
field mean -nan
field stddev -nan
field sum 0
field sqrsum 0
field min -nan
field max -nan
attr source  bitErrorRate
attr title  "Bit error rate, histogram"
bin	-INF	0
bin	-0.5	0
bin	-0.46666666666667	0
bin	-0.43333333333333	0
bin	-0.4	0
bin	-0.36666666666667	0
bin	-0.33333333333333	0
bin	-0.3	0
bin	-0.26666666666667	0
bin	-0.23333333333333	0
bin	-0.2	0
bin	-0.16666666666667	0
bin	-0.13333333333333	0
bin	-0.1	0
bin	-0.066666666666667	0
bin	-0.033333333333333	0
bin	0	0
bin	0.033333333333333	0
bin	0.066666666666667	0
bin	0.1	0
bin	0.13333333333333	0
bin	0.16666666666667	0
bin	0.2	0
bin	0.23333333333333	0
bin	0.26666666666667	0
bin	0.3	0
bin	0.33333333333333	0
bin	0.36666666666667	0
bin	0.4	0
bin	0.43333333333333	0
bin	0.46666666666667	0
bin	0.5	0
statistic scenarioPRJP2.node[2].wlan.radio 	packetErrorRate:histogram
field count 780
field mean 0.0030282908233836
field stddev 0.05115764108656
field sum 2.3620668422392
field sqrsum 2.0458772295032
field min 0
field max 1
attr source  packetErrorRate
attr title  "Packet error rate, histogram"
bin	-INF	0
bin	-0.5	0
bin	-0.46666666666667	0
bin	-0.43333333333333	0
bin	-0.4	0
bin	-0.36666666666667	0
bin	-0.33333333333333	0
bin	-0.3	0
bin	-0.26666666666667	0
bin	-0.23333333333333	0
bin	-0.2	0
bin	-0.16666666666667	0
bin	-0.13333333333333	0
bin	-0.1	0
bin	-0.066666666666667	0
bin	-0.033333333333333	0
bin	0	777
bin	0.033333333333333	0
bin	0.066666666666667	0
bin	0.1	0
bin	0.13333333333333	0
bin	0.16666666666667	0
bin	0.2	0
bin	0.23333333333333	0
bin	0.26666666666667	0
bin	0.3	0
bin	0.33333333333333	0
bin	0.36666666666667	0
bin	0.4	0
bin	0.43333333333333	1
bin	0.46666666666667	0
bin	0.5	2
statistic scenarioPRJP2.node[2].wlan.radio 	minSNIR:histogram
field count 780
field mean 952.48325207552
field stddev 5214.4603744397
field sum 742936.93661891
field sqrsum 21889110049.83
field min 0.7568670131771
field max 86687.906489285
attr source  minSNIR
attr title  "Min SNIR, histogram"
bin	-INF	0
bin	-69.245580974075	0
bin	-43.112729678885	0
bin	-16.979878383695	5
bin	9.1529729114958	10
bin	35.285824206686	0
bin	61.418675501877	0
bin	87.551526797067	1
bin	113.68437809226	40
bin	139.81722938745	84
bin	165.95008068264	70
bin	192.08293197783	67
bin	218.21578327302	32
bin	244.34863456821	34
bin	270.4814858634	31
bin	296.61433715859	21
bin	322.74718845378	16
bin	348.88003974897	26
bin	375.01289104416	66
bin	401.14574233935	28
bin	427.27859363454	17
bin	453.41144492973	20
bin	479.54429622492	13
bin	505.67714752011	15
bin	531.8099988153	8
bin	557.94285011049	21
bin	584.07570140568	13
bin	610.20855270087	20
bin	636.34140399606	4
bin	662.47425529126	5
bin	688.60710658645	4
bin	714.73995788164	109
scalar scenarioPRJP2.node[2].lo0.lo 	droppedPkBitError:count 	0
attr interpolationmode  none
attr source  dropPkBitError
attr title  "packets dropped/bit error, count"
scalar scenarioPRJP2.node[2].lo0.lo 	droppedPkBitError:sum(packetBytes) 	0
attr interpolationmode  none
attr source  dropPkBitError
attr title  "packets dropped/bit error, sum(packetBytes)"
scalar scenarioPRJP2.node[2].lo0.lo 	rcvdPkFromHL:count 	0
attr interpolationmode  none
attr source  packetReceivedFromUpper
attr title  "packets received from higher layer, count"
scalar scenarioPRJP2.node[2].lo0.lo 	rcvdPkFromHL:sum(packetBytes) 	0
attr interpolationmode  none
attr source  packetReceivedFromUpper
attr title  "packets received from higher layer, sum(packetBytes)"
scalar scenarioPRJP2.node[2].lo0.lo 	passedUpPk:count 	0
attr interpolationmode  none
attr source  packetSentToUpper
attr title  "packets passed to higher layer, count"
scalar scenarioPRJP2.node[2].lo0.lo 	passedUpPk:sum(packetBytes) 	0
attr interpolationmode  none
attr source  packetSentToUpper
attr title  "packets passed to higher layer, sum(packetBytes)"
scalar scenarioPRJP2.node[3].app 	"Total sent" 	549
scalar scenarioPRJP2.node[3].app 	"Total received" 	103
scalar scenarioPRJP2.node[3].app 	"Total deleted" 	0
scalar scenarioPRJP2.node[3].app 	dropPk:count 	0
attr interpolationmode  none
attr source  dropPk
attr title  "packets dropped, count"
scalar scenarioPRJP2.node[3].app 	dropPk:sum(packetBytes) 	0
attr interpolationmode  none
attr source  dropPk
attr title  "packets dropped, sum(packetBytes)"
scalar scenarioPRJP2.node[3].app 	outOfOrderPk:count 	0
attr interpolationmode  none
attr source  outOfOrderPk
attr title  "packets received out of order, count"
scalar scenarioPRJP2.node[3].app 	outOfOrderPk:sum(packetBytes) 	0
attr interpolationmode  none
attr source  outOfOrderPk
attr title  "packets received out of order, sum(packetBytes)"
scalar scenarioPRJP2.node[3].app 	rcvdPk:count 	103
attr interpolationmode  none
attr source  rcvdPk
attr title  "packets received, count"
scalar scenarioPRJP2.node[3].app 	rcvdPk:sum(packetBytes) 	52736
attr interpolationmode  none
attr source  rcvdPk
attr title  "packets received, sum(packetBytes)"
statistic scenarioPRJP2.node[3].app 	endToEndDelay:histogram
field count 103
field mean 0.0017214886931068
field stddev 0.0009155759738592
field sum 0.17731333539
field sqrsum 0.00039074739712958
field min 0.000972149532
field max 0.006205242556
attr interpolationmode  none
attr source  messageAge(rcvdPk)
attr title  "delay, histogram"
attr unit  s
bin	-INF	0
bin	-0.00164439698	0
bin	-0.0012955241117333	0
bin	-0.00094665124346667	0
bin	-0.0005977783752	0
bin	-0.00024890550693333	0
bin	9.9967361333333e-05	0
bin	0.0004488402296	0
bin	0.00079771309786667	37
bin	0.0011465859661333	25
bin	0.0014954588344	0
bin	0.0018443317026667	5
bin	0.0021932045709333	27
bin	0.0025420774392	0
bin	0.0028909503074667	0
bin	0.0032398231757333	6
bin	0.003588696044	0
bin	0.0039375689122667	0
bin	0.0042864417805333	2
bin	0.0046353146488	0
bin	0.0049841875170667	0
bin	0.0053330603853333	0
bin	0.0056819332536	0
bin	0.0060308061218667	1
bin	0.0063796789901333	0
bin	0.0067285518584	0
bin	0.0070774247266667	0
bin	0.0074262975949333	0
bin	0.0077751704632	0
bin	0.0081240433314667	0
bin	0.0084729161997333	0
bin	0.008821789068	0
scalar scenarioPRJP2.node[3].app 	sentPk:count 	549
attr interpolationmode  none
attr source  sentPk
attr title  "packets sent, count"
scalar scenarioPRJP2.node[3].app 	sentPk:sum(packetBytes) 	281088
attr interpolationmode  none
attr source  sentPk
attr title  "packets sent, sum(packetBytes)"
scalar scenarioPRJP2.node[3].udp 	droppedPkBadChecksum:count 	0
attr interpolationmode  none
attr title  "packets dropped (checksum error), count"
scalar scenarioPRJP2.node[3].udp 	droppedPkWrongPort:count 	0
attr interpolationmode  none
attr title  "packets dropped (wrong port), count"
scalar scenarioPRJP2.node[3].udp 	passedUpPk:count 	103
attr interpolationmode  none
attr title  "packets passed up, count"
scalar scenarioPRJP2.node[3].udp 	rcvdPk:count 	103
attr interpolationmode  none
attr source  rcvdPk
attr title  "packets received, count"
scalar scenarioPRJP2.node[3].udp 	rcvdPk:sum(packetBytes) 	53560
attr interpolationmode  none
attr source  rcvdPk
attr title  "packets received, sum(packetBytes)"
scalar scenarioPRJP2.node[3].udp 	sentPk:count 	549
attr interpolationmode  none
attr source  sentPk
attr title  "packets sent, count"
scalar scenarioPRJP2.node[3].udp 	sentPk:sum(packetBytes) 	285480
attr interpolationmode  none
attr source  sentPk
attr title  "packets sent, sum(packetBytes)"
scalar scenarioPRJP2.node[3].networkLayer.arp 	failedARPResolution:count 	9
attr title  "ARP failed resolutions, count"
scalar scenarioPRJP2.node[3].networkLayer.arp 	completedARPResolution:count 	8
attr title  "ARP completed resolutions, count"
scalar scenarioPRJP2.node[3].networkLayer.arp 	initiatedARPResolution:count 	10
attr title  "ARP initiated resolutions, count"
scalar scenarioPRJP2.node[3].networkLayer.arp 	sentReply:count 	5
attr title  "ARP replies sent, count"
scalar scenarioPRJP2.node[3].networkLayer.arp 	sentReq:count 	28
attr title  "ARP request sent, count"
scalar scenarioPRJP2.node[3].mobility 	startTime 	0.1
scalar scenarioPRJP2.node[3].mobility 	totalTime 	649.9
scalar scenarioPRJP2.node[3].mobility 	stopTime 	650
scalar scenarioPRJP2.node[3].mobility 	minSpeed 	1.1257031838118e-13
scalar scenarioPRJP2.node[3].mobility 	maxSpeed 	11.109952279651
scalar scenarioPRJP2.node[3].mobility 	totalDistance 	6291.7797905595
scalar scenarioPRJP2.node[3].mobility 	totalCO2Emission 	1447.952486996
scalar scenarioPRJP2.node[3].wlan.mgmt 	dataQueueLen:max 	0
attr interpolationmode  sample-hold
attr title  "data queue length, max"
scalar scenarioPRJP2.node[3].wlan.mgmt 	dataQueueLen:timeavg 	0
attr interpolationmode  sample-hold
attr title  "data queue length, timeavg"
scalar scenarioPRJP2.node[3].wlan.mgmt 	dropPkByQueue:count 	0
attr interpolationmode  none
attr source  dropPkByQueue
attr title  "packets dropped by queue, count"
scalar scenarioPRJP2.node[3].wlan.mgmt 	dropPkByQueue:sum(packetBytes) 	0
attr interpolationmode  none
attr source  dropPkByQueue
attr title  "packets dropped by queue, sum(packetBytes)"
scalar scenarioPRJP2.node[3].wlan.mac 	"number of received packets" 	124
scalar scenarioPRJP2.node[3].wlan.mac 	"number of collisions" 	3
scalar scenarioPRJP2.node[3].wlan.mac 	"number of internal collisions" 	0
scalar scenarioPRJP2.node[3].wlan.mac 	"number of retry for AC 0" 	39
scalar scenarioPRJP2.node[3].wlan.mac 	"number of retry for AC 1" 	0
scalar scenarioPRJP2.node[3].wlan.mac 	"number of retry for AC 2" 	0
scalar scenarioPRJP2.node[3].wlan.mac 	"number of retry for AC 3" 	0
scalar scenarioPRJP2.node[3].wlan.mac 	"sent and received bits" 	8889344
scalar scenarioPRJP2.node[3].wlan.mac 	"sent packet within AC 0" 	98
scalar scenarioPRJP2.node[3].wlan.mac 	"sent packet within AC 1" 	0
scalar scenarioPRJP2.node[3].wlan.mac 	"sent packet within AC 2" 	0
scalar scenarioPRJP2.node[3].wlan.mac 	"sent packet within AC 3" 	0
scalar scenarioPRJP2.node[3].wlan.mac 	"sent in TXOP " 	0
scalar scenarioPRJP2.node[3].wlan.mac 	"sentWithoutRetry AC 0" 	97
scalar scenarioPRJP2.node[3].wlan.mac 	"sentWithoutRetry AC 1" 	0
scalar scenarioPRJP2.node[3].wlan.mac 	"sentWithoutRetry AC 2" 	0
scalar scenarioPRJP2.node[3].wlan.mac 	"sentWithoutRetry AC 3" 	0
scalar scenarioPRJP2.node[3].wlan.mac 	"numGivenUp AC 0" 	6
scalar scenarioPRJP2.node[3].wlan.mac 	"numGivenUp AC 1" 	0
scalar scenarioPRJP2.node[3].wlan.mac 	"numGivenUp AC 2" 	0
scalar scenarioPRJP2.node[3].wlan.mac 	"numGivenUp AC 3" 	0
scalar scenarioPRJP2.node[3].wlan.mac 	"numDropped AC 0" 	0
scalar scenarioPRJP2.node[3].wlan.mac 	"numDropped AC 1" 	0
scalar scenarioPRJP2.node[3].wlan.mac 	"numDropped AC 2" 	0
scalar scenarioPRJP2.node[3].wlan.mac 	"numDropped AC 3" 	0
scalar scenarioPRJP2.node[3].wlan.mac 	rcvdPkFromLL:count 	994
attr interpolationmode  none
attr source  packetReceivedFromLower
attr title  "packets received from lower layer, count"
scalar scenarioPRJP2.node[3].wlan.mac 	rcvdPkFromLL:sum(packetBytes) 	787308
attr interpolationmode  none
attr source  packetReceivedFromLower
attr title  "packets received from lower layer, sum(packetBytes)"
scalar scenarioPRJP2.node[3].wlan.mac 	sentDownPk:count 	1287
attr interpolationmode  none
attr source  packetSentToLower
attr title  "packets sent to lower layer, count"
scalar scenarioPRJP2.node[3].wlan.mac 	sentDownPk:sum(packetBytes) 	1138824
attr interpolationmode  none
attr source  packetSentToLower
attr title  "packets sent to lower layer, sum(packetBytes)"
scalar scenarioPRJP2.node[3].wlan.mac 	rcvdPkFromHL:count 	1124
attr interpolationmode  none
attr source  packetReceivedFromUpper
attr title  "packets received from higher layer, count"
scalar scenarioPRJP2.node[3].wlan.mac 	rcvdPkFromHL:sum(packetBytes) 	1114624
attr interpolationmode  none
attr source  packetReceivedFromUpper
attr title  "packets received from higher layer, sum(packetBytes)"
scalar scenarioPRJP2.node[3].wlan.mac 	passedUpPk:count 	778
attr interpolationmode  none
attr source  packetSentToUpper
attr title  "packets passed to higher layer, count"
scalar scenarioPRJP2.node[3].wlan.mac 	passedUpPk:sum(packetBytes) 	758768
attr interpolationmode  none
attr source  packetSentToUpper
attr title  "packets passed to higher layer, sum(packetBytes)"
statistic scenarioPRJP2.node[3].wlan.radio 	radioChannel:histogram
field count 1
field mean 3
field stddev -nan
field sum 3
field sqrsum 9
field min 3
field max 3
attr interpolationmode  sample-hold
attr source  radioChannelChanged
attr title  "Radio channel, histogram"
bin	-INF	0
bin	2	0
bin	3	1
bin	4	0
scalar scenarioPRJP2.node[3].wlan.radio 	transmissionState:count 	5148
attr interpolationmode  sample-hold
attr source  transmissionStateChanged
attr title  "Radio transmission state, count"
scalar scenarioPRJP2.node[3].wlan.radio 	receptionState:count 	4564
attr interpolationmode  sample-hold
attr source  receptionStateChanged
attr title  "Radio reception state, count"
scalar scenarioPRJP2.node[3].wlan.radio 	radioMode:count 	2576
attr interpolationmode  sample-hold
attr source  radioModeChanged
attr title  "Radio mode, count"
statistic scenarioPRJP2.node[3].wlan.radio 	symbolErrorRate:histogram
field count 0
field mean -nan
field stddev -nan
field sum 0
field sqrsum 0
field min -nan
field max -nan
attr source  symbolErrorRate
attr title  "Symbol error rate, histogram"
bin	-INF	0
bin	-0.5	0
bin	-0.46666666666667	0
bin	-0.43333333333333	0
bin	-0.4	0
bin	-0.36666666666667	0
bin	-0.33333333333333	0
bin	-0.3	0
bin	-0.26666666666667	0
bin	-0.23333333333333	0
bin	-0.2	0
bin	-0.16666666666667	0
bin	-0.13333333333333	0
bin	-0.1	0
bin	-0.066666666666667	0
bin	-0.033333333333333	0
bin	0	0
bin	0.033333333333333	0
bin	0.066666666666667	0
bin	0.1	0
bin	0.13333333333333	0
bin	0.16666666666667	0
bin	0.2	0
bin	0.23333333333333	0
bin	0.26666666666667	0
bin	0.3	0
bin	0.33333333333333	0
bin	0.36666666666667	0
bin	0.4	0
bin	0.43333333333333	0
bin	0.46666666666667	0
bin	0.5	0
statistic scenarioPRJP2.node[3].wlan.radio 	bitErrorRate:histogram
field count 0
field mean -nan
field stddev -nan
field sum 0
field sqrsum 0
field min -nan
field max -nan
attr source  bitErrorRate
attr title  "Bit error rate, histogram"
bin	-INF	0
bin	-0.5	0
bin	-0.46666666666667	0
bin	-0.43333333333333	0
bin	-0.4	0
bin	-0.36666666666667	0
bin	-0.33333333333333	0
bin	-0.3	0
bin	-0.26666666666667	0
bin	-0.23333333333333	0
bin	-0.2	0
bin	-0.16666666666667	0
bin	-0.13333333333333	0
bin	-0.1	0
bin	-0.066666666666667	0
bin	-0.033333333333333	0
bin	0	0
bin	0.033333333333333	0
bin	0.066666666666667	0
bin	0.1	0
bin	0.13333333333333	0
bin	0.16666666666667	0
bin	0.2	0
bin	0.23333333333333	0
bin	0.26666666666667	0
bin	0.3	0
bin	0.33333333333333	0
bin	0.36666666666667	0
bin	0.4	0
bin	0.43333333333333	0
bin	0.46666666666667	0
bin	0.5	0
statistic scenarioPRJP2.node[3].wlan.radio 	packetErrorRate:histogram
field count 994
field mean 0.0052874679451966
field stddev 0.071141729158835
field sum 5.2557431375254
field sqrsum 5.0535071816829
field min 0
field max 1
attr source  packetErrorRate
attr title  "Packet error rate, histogram"
bin	-INF	0
bin	-0.5	0
bin	-0.46666666666667	0
bin	-0.43333333333333	0
bin	-0.4	0
bin	-0.36666666666667	0
bin	-0.33333333333333	0
bin	-0.3	0
bin	-0.26666666666667	0
bin	-0.23333333333333	0
bin	-0.2	0
bin	-0.16666666666667	0
bin	-0.13333333333333	0
bin	-0.1	0
bin	-0.066666666666667	0
bin	-0.033333333333333	0
bin	0	988
bin	0.033333333333333	0
bin	0.066666666666667	0
bin	0.1	0
bin	0.13333333333333	0
bin	0.16666666666667	0
bin	0.2	1
bin	0.23333333333333	0
bin	0.26666666666667	0
bin	0.3	0
bin	0.33333333333333	0
bin	0.36666666666667	0
bin	0.4	0
bin	0.43333333333333	0
bin	0.46666666666667	0
bin	0.5	5
statistic scenarioPRJP2.node[3].wlan.radio 	minSNIR:histogram
field count 994
field mean 611.8002346719
field stddev 697.01919631843
field sum 608129.43326387
field sqrsum 854488639.69786
field min 0.36378142234293
field max 4425.2534121486
attr source  minSNIR
attr title  "Min SNIR, histogram"
bin	-INF	0
bin	-1578.7149693609	0
bin	-1364.0406328332	0
bin	-1149.3662963055	0
bin	-934.69195977781	0
bin	-720.01762325013	0
bin	-505.34328672245	0
bin	-290.66895019476	0
bin	-75.99461366708	98
bin	138.6797228606	324
bin	353.35405938829	289
bin	568.02839591597	92
bin	782.70273244365	29
bin	997.37706897133	61
bin	1212.051405499	6
bin	1426.7257420267	11
bin	1641.4000785544	9
bin	1856.0744150821	21
bin	2070.7487516097	4
bin	2285.4230881374	7
bin	2500.0974246651	9
bin	2714.7717611928	11
bin	2929.4460977205	8
bin	3144.1204342482	4
bin	3358.7947707758	2
bin	3573.4691073035	3
bin	3788.1434438312	2
bin	4002.8177803589	1
bin	4217.4921168866	3
bin	4432.1664534143	0
bin	4646.8407899419	0
bin	4861.5151264696	0
scalar scenarioPRJP2.node[3].lo0.lo 	droppedPkBitError:count 	0
attr interpolationmode  none
attr source  dropPkBitError
attr title  "packets dropped/bit error, count"
scalar scenarioPRJP2.node[3].lo0.lo 	droppedPkBitError:sum(packetBytes) 	0
attr interpolationmode  none
attr source  dropPkBitError
attr title  "packets dropped/bit error, sum(packetBytes)"
scalar scenarioPRJP2.node[3].lo0.lo 	rcvdPkFromHL:count 	0
attr interpolationmode  none
attr source  packetReceivedFromUpper
attr title  "packets received from higher layer, count"
scalar scenarioPRJP2.node[3].lo0.lo 	rcvdPkFromHL:sum(packetBytes) 	0
attr interpolationmode  none
attr source  packetReceivedFromUpper
attr title  "packets received from higher layer, sum(packetBytes)"
scalar scenarioPRJP2.node[3].lo0.lo 	passedUpPk:count 	0
attr interpolationmode  none
attr source  packetSentToUpper
attr title  "packets passed to higher layer, count"
scalar scenarioPRJP2.node[3].lo0.lo 	passedUpPk:sum(packetBytes) 	0
attr interpolationmode  none
attr source  packetSentToUpper
attr title  "packets passed to higher layer, sum(packetBytes)"
scalar scenarioPRJP2.node[4].app 	"Total sent" 	541
scalar scenarioPRJP2.node[4].app 	"Total received" 	102
scalar scenarioPRJP2.node[4].app 	"Total deleted" 	0
scalar scenarioPRJP2.node[4].app 	dropPk:count 	0
attr interpolationmode  none
attr source  dropPk
attr title  "packets dropped, count"
scalar scenarioPRJP2.node[4].app 	dropPk:sum(packetBytes) 	0
attr interpolationmode  none
attr source  dropPk
attr title  "packets dropped, sum(packetBytes)"
scalar scenarioPRJP2.node[4].app 	outOfOrderPk:count 	0
attr interpolationmode  none
attr source  outOfOrderPk
attr title  "packets received out of order, count"
scalar scenarioPRJP2.node[4].app 	outOfOrderPk:sum(packetBytes) 	0
attr interpolationmode  none
attr source  outOfOrderPk
attr title  "packets received out of order, sum(packetBytes)"
scalar scenarioPRJP2.node[4].app 	rcvdPk:count 	102
attr interpolationmode  none
attr source  rcvdPk
attr title  "packets received, count"
scalar scenarioPRJP2.node[4].app 	rcvdPk:sum(packetBytes) 	52224
attr interpolationmode  none
attr source  rcvdPk
attr title  "packets received, sum(packetBytes)"
statistic scenarioPRJP2.node[4].app 	endToEndDelay:histogram
field count 102
field mean 0.001641434957451
field stddev 0.0013817832749775
field sum 0.16742636566
field sqrsum 0.00046766131631305
field min 0.000972199424
field max 0.009900797982
attr interpolationmode  none
attr source  messageAge(rcvdPk)
attr title  "delay, histogram"
attr unit  s
bin	-INF	0
bin	-0.003492099855	0
bin	-0.0028968599511333	0
bin	-0.0023016200472667	0
bin	-0.0017063801434	0
bin	-0.0011111402395333	0
bin	-0.00051590033566667	0
bin	7.93395682e-05	0
bin	0.00067457947206667	71
bin	0.0012698193759333	0
bin	0.0018650592798	26
bin	0.0024602991836667	1
bin	0.0030555390875333	0
bin	0.0036507789914	0
bin	0.0042460188952667	1
bin	0.0048412587991333	0
bin	0.005436498703	0
bin	0.0060317386068667	0
bin	0.0066269785107333	0
bin	0.0072222184146	1
bin	0.0078174583184667	0
bin	0.0084126982223333	1
bin	0.0090079381262	0
bin	0.0096031780300667	1
bin	0.010198417933933	0
bin	0.0107936578378	0
bin	0.011388897741667	0
bin	0.011984137645533	0
bin	0.0125793775494	0
bin	0.013174617453267	0
bin	0.013769857357133	0
bin	0.014365097261	0
scalar scenarioPRJP2.node[4].app 	sentPk:count 	541
attr interpolationmode  none
attr source  sentPk
attr title  "packets sent, count"
scalar scenarioPRJP2.node[4].app 	sentPk:sum(packetBytes) 	276992
attr interpolationmode  none
attr source  sentPk
attr title  "packets sent, sum(packetBytes)"
scalar scenarioPRJP2.node[4].udp 	droppedPkBadChecksum:count 	0
attr interpolationmode  none
attr title  "packets dropped (checksum error), count"
scalar scenarioPRJP2.node[4].udp 	droppedPkWrongPort:count 	0
attr interpolationmode  none
attr title  "packets dropped (wrong port), count"
scalar scenarioPRJP2.node[4].udp 	passedUpPk:count 	102
attr interpolationmode  none
attr title  "packets passed up, count"
scalar scenarioPRJP2.node[4].udp 	rcvdPk:count 	102
attr interpolationmode  none
attr source  rcvdPk
attr title  "packets received, count"
scalar scenarioPRJP2.node[4].udp 	rcvdPk:sum(packetBytes) 	53040
attr interpolationmode  none
attr source  rcvdPk
attr title  "packets received, sum(packetBytes)"
scalar scenarioPRJP2.node[4].udp 	sentPk:count 	541
attr interpolationmode  none
attr source  sentPk
attr title  "packets sent, count"
scalar scenarioPRJP2.node[4].udp 	sentPk:sum(packetBytes) 	281320
attr interpolationmode  none
attr source  sentPk
attr title  "packets sent, sum(packetBytes)"
scalar scenarioPRJP2.node[4].networkLayer.arp 	failedARPResolution:count 	0
attr title  "ARP failed resolutions, count"
scalar scenarioPRJP2.node[4].networkLayer.arp 	completedARPResolution:count 	6
attr title  "ARP completed resolutions, count"
scalar scenarioPRJP2.node[4].networkLayer.arp 	initiatedARPResolution:count 	0
attr title  "ARP initiated resolutions, count"
scalar scenarioPRJP2.node[4].networkLayer.arp 	sentReply:count 	4
attr title  "ARP replies sent, count"
scalar scenarioPRJP2.node[4].networkLayer.arp 	sentReq:count 	0
attr title  "ARP request sent, count"
scalar scenarioPRJP2.node[4].mobility 	startTime 	0.1
scalar scenarioPRJP2.node[4].mobility 	totalTime 	649.9
scalar scenarioPRJP2.node[4].mobility 	stopTime 	650
scalar scenarioPRJP2.node[4].mobility 	minSpeed 	3.1641832375392e-12
scalar scenarioPRJP2.node[4].mobility 	maxSpeed 	11.109844444897
scalar scenarioPRJP2.node[4].mobility 	totalDistance 	4912.2976524749
scalar scenarioPRJP2.node[4].mobility 	totalCO2Emission 	1388.2075906477
scalar scenarioPRJP2.node[4].wlan.mgmt 	dataQueueLen:max 	0
attr interpolationmode  sample-hold
attr title  "data queue length, max"
scalar scenarioPRJP2.node[4].wlan.mgmt 	dataQueueLen:timeavg 	0
attr interpolationmode  sample-hold
attr title  "data queue length, timeavg"
scalar scenarioPRJP2.node[4].wlan.mgmt 	dropPkByQueue:count 	0
attr interpolationmode  none
attr source  dropPkByQueue
attr title  "packets dropped by queue, count"
scalar scenarioPRJP2.node[4].wlan.mgmt 	dropPkByQueue:sum(packetBytes) 	0
attr interpolationmode  none
attr source  dropPkByQueue
attr title  "packets dropped by queue, sum(packetBytes)"
scalar scenarioPRJP2.node[4].wlan.mac 	"number of received packets" 	164
scalar scenarioPRJP2.node[4].wlan.mac 	"number of collisions" 	6
scalar scenarioPRJP2.node[4].wlan.mac 	"number of internal collisions" 	0
scalar scenarioPRJP2.node[4].wlan.mac 	"number of retry for AC 0" 	87
scalar scenarioPRJP2.node[4].wlan.mac 	"number of retry for AC 1" 	0
scalar scenarioPRJP2.node[4].wlan.mac 	"number of retry for AC 2" 	0
scalar scenarioPRJP2.node[4].wlan.mac 	"number of retry for AC 3" 	0
scalar scenarioPRJP2.node[4].wlan.mac 	"sent and received bits" 	9008256
scalar scenarioPRJP2.node[4].wlan.mac 	"sent packet within AC 0" 	78
scalar scenarioPRJP2.node[4].wlan.mac 	"sent packet within AC 1" 	0
scalar scenarioPRJP2.node[4].wlan.mac 	"sent packet within AC 2" 	0
scalar scenarioPRJP2.node[4].wlan.mac 	"sent packet within AC 3" 	0
scalar scenarioPRJP2.node[4].wlan.mac 	"sent in TXOP " 	0
scalar scenarioPRJP2.node[4].wlan.mac 	"sentWithoutRetry AC 0" 	76
scalar scenarioPRJP2.node[4].wlan.mac 	"sentWithoutRetry AC 1" 	0
scalar scenarioPRJP2.node[4].wlan.mac 	"sentWithoutRetry AC 2" 	0
scalar scenarioPRJP2.node[4].wlan.mac 	"sentWithoutRetry AC 3" 	0
scalar scenarioPRJP2.node[4].wlan.mac 	"numGivenUp AC 0" 	13
scalar scenarioPRJP2.node[4].wlan.mac 	"numGivenUp AC 1" 	0
scalar scenarioPRJP2.node[4].wlan.mac 	"numGivenUp AC 2" 	0
scalar scenarioPRJP2.node[4].wlan.mac 	"numGivenUp AC 3" 	0
scalar scenarioPRJP2.node[4].wlan.mac 	"numDropped AC 0" 	0
scalar scenarioPRJP2.node[4].wlan.mac 	"numDropped AC 1" 	0
scalar scenarioPRJP2.node[4].wlan.mac 	"numDropped AC 2" 	0
scalar scenarioPRJP2.node[4].wlan.mac 	"numDropped AC 3" 	0
scalar scenarioPRJP2.node[4].wlan.mac 	rcvdPkFromLL:count 	1096
attr interpolationmode  none
attr source  packetReceivedFromLower
attr title  "packets received from lower layer, count"
scalar scenarioPRJP2.node[4].wlan.mac 	rcvdPkFromLL:sum(packetBytes) 	854616
attr interpolationmode  none
attr source  packetReceivedFromLower
attr title  "packets received from lower layer, sum(packetBytes)"
scalar scenarioPRJP2.node[4].wlan.mac 	sentDownPk:count 	1360
attr interpolationmode  none
attr source  packetSentToLower
attr title  "packets sent to lower layer, count"
scalar scenarioPRJP2.node[4].wlan.mac 	sentDownPk:sum(packetBytes) 	1185928
attr interpolationmode  none
attr source  packetSentToLower
attr title  "packets sent to lower layer, sum(packetBytes)"
scalar scenarioPRJP2.node[4].wlan.mac 	rcvdPkFromHL:count 	1109
attr interpolationmode  none
attr source  packetReceivedFromUpper
attr title  "packets received from higher layer, count"
scalar scenarioPRJP2.node[4].wlan.mac 	rcvdPkFromHL:sum(packetBytes) 	1133520
attr interpolationmode  none
attr source  packetReceivedFromUpper
attr title  "packets received from higher layer, sum(packetBytes)"
scalar scenarioPRJP2.node[4].wlan.mac 	passedUpPk:count 	860
attr interpolationmode  none
attr source  packetSentToUpper
attr title  "packets passed to higher layer, count"
scalar scenarioPRJP2.node[4].wlan.mac 	passedUpPk:sum(packetBytes) 	829980
attr interpolationmode  none
attr source  packetSentToUpper
attr title  "packets passed to higher layer, sum(packetBytes)"
statistic scenarioPRJP2.node[4].wlan.radio 	radioChannel:histogram
field count 1
field mean 3
field stddev -nan
field sum 3
field sqrsum 9
field min 3
field max 3
attr interpolationmode  sample-hold
attr source  radioChannelChanged
attr title  "Radio channel, histogram"
bin	-INF	0
bin	2	0
bin	3	1
bin	4	0
scalar scenarioPRJP2.node[4].wlan.radio 	transmissionState:count 	5440
attr interpolationmode  sample-hold
attr source  transmissionStateChanged
attr title  "Radio transmission state, count"
scalar scenarioPRJP2.node[4].wlan.radio 	receptionState:count 	4913
attr interpolationmode  sample-hold
attr source  receptionStateChanged
attr title  "Radio reception state, count"
scalar scenarioPRJP2.node[4].wlan.radio 	radioMode:count 	2722
attr interpolationmode  sample-hold
attr source  radioModeChanged
attr title  "Radio mode, count"
statistic scenarioPRJP2.node[4].wlan.radio 	symbolErrorRate:histogram
field count 0
field mean -nan
field stddev -nan
field sum 0
field sqrsum 0
field min -nan
field max -nan
attr source  symbolErrorRate
attr title  "Symbol error rate, histogram"
bin	-INF	0
bin	-0.5	0
bin	-0.46666666666667	0
bin	-0.43333333333333	0
bin	-0.4	0
bin	-0.36666666666667	0
bin	-0.33333333333333	0
bin	-0.3	0
bin	-0.26666666666667	0
bin	-0.23333333333333	0
bin	-0.2	0
bin	-0.16666666666667	0
bin	-0.13333333333333	0
bin	-0.1	0
bin	-0.066666666666667	0
bin	-0.033333333333333	0
bin	0	0
bin	0.033333333333333	0
bin	0.066666666666667	0
bin	0.1	0
bin	0.13333333333333	0
bin	0.16666666666667	0
bin	0.2	0
bin	0.23333333333333	0
bin	0.26666666666667	0
bin	0.3	0
bin	0.33333333333333	0
bin	0.36666666666667	0
bin	0.4	0
bin	0.43333333333333	0
bin	0.46666666666667	0
bin	0.5	0
statistic scenarioPRJP2.node[4].wlan.radio 	bitErrorRate:histogram
field count 0
field mean -nan
field stddev -nan
field sum 0
field sqrsum 0
field min -nan
field max -nan
attr source  bitErrorRate
attr title  "Bit error rate, histogram"
bin	-INF	0
bin	-0.5	0
bin	-0.46666666666667	0
bin	-0.43333333333333	0
bin	-0.4	0
bin	-0.36666666666667	0
bin	-0.33333333333333	0
bin	-0.3	0
bin	-0.26666666666667	0
bin	-0.23333333333333	0
bin	-0.2	0
bin	-0.16666666666667	0
bin	-0.13333333333333	0
bin	-0.1	0
bin	-0.066666666666667	0
bin	-0.033333333333333	0
bin	0	0
bin	0.033333333333333	0
bin	0.066666666666667	0
bin	0.1	0
bin	0.13333333333333	0
bin	0.16666666666667	0
bin	0.2	0
bin	0.23333333333333	0
bin	0.26666666666667	0
bin	0.3	0
bin	0.33333333333333	0
bin	0.36666666666667	0
bin	0.4	0
bin	0.43333333333333	0
bin	0.46666666666667	0
bin	0.5	0
statistic scenarioPRJP2.node[4].wlan.radio 	packetErrorRate:histogram
field count 1096
field mean 0.0059718451317162
field stddev 0.075291706577893
field sum 6.5451422643609
field sqrsum 6.2464675579234
field min 0
field max 1
attr source  packetErrorRate
attr title  "Packet error rate, histogram"
bin	-INF	0
bin	-0.5	0
bin	-0.46666666666667	0
bin	-0.43333333333333	0
bin	-0.4	0
bin	-0.36666666666667	0
bin	-0.33333333333333	0
bin	-0.3	0
bin	-0.26666666666667	0
bin	-0.23333333333333	0
bin	-0.2	0
bin	-0.16666666666667	0
bin	-0.13333333333333	0
bin	-0.1	0
bin	-0.066666666666667	0
bin	-0.033333333333333	0
bin	0	1089
bin	0.033333333333333	0
bin	0.066666666666667	0
bin	0.1	0
bin	0.13333333333333	0
bin	0.16666666666667	0
bin	0.2	0
bin	0.23333333333333	0
bin	0.26666666666667	0
bin	0.3	0
bin	0.33333333333333	0
bin	0.36666666666667	0
bin	0.4	0
bin	0.43333333333333	0
bin	0.46666666666667	1
bin	0.5	6
statistic scenarioPRJP2.node[4].wlan.radio 	minSNIR:histogram
field count 1096
field mean 908.64287377308
field stddev 5591.8789564035
field sum 995872.5896553
field sqrsum 35144568269.836
field min 1.5839181042898
field max 112648.58045956
attr source  minSNIR
attr title  "Min SNIR, histogram"
bin	-INF	0
bin	-1602.5144894229	0
bin	-1386.782396448	0
bin	-1171.0503034731	0
bin	-955.31821049823	0
bin	-739.58611752335	0
bin	-523.85402454847	0
bin	-308.12193157358	0
bin	-92.389838598698	58
bin	123.34225437619	748
bin	339.07434735107	112
bin	554.80644032595	38
bin	770.53853330084	30
bin	986.27062627572	21
bin	1202.0027192506	4
bin	1417.7348122255	15
bin	1633.4669052004	6
bin	1849.1989981753	5
bin	2064.9310911501	5
bin	2280.663184125	9
bin	2496.3952770999	4
bin	2712.1273700748	6
bin	2927.8594630497	2
bin	3143.5915560246	3
bin	3359.3236489994	0
bin	3575.0557419743	0
bin	3790.7878349492	2
bin	4006.5199279241	2
bin	4222.252020899	0
bin	4437.9841138739	0
bin	4653.7162068487	0
bin	4869.4482998236	26
scalar scenarioPRJP2.node[4].lo0.lo 	droppedPkBitError:count 	0
attr interpolationmode  none
attr source  dropPkBitError
attr title  "packets dropped/bit error, count"
scalar scenarioPRJP2.node[4].lo0.lo 	droppedPkBitError:sum(packetBytes) 	0
attr interpolationmode  none
attr source  dropPkBitError
attr title  "packets dropped/bit error, sum(packetBytes)"
scalar scenarioPRJP2.node[4].lo0.lo 	rcvdPkFromHL:count 	0
attr interpolationmode  none
attr source  packetReceivedFromUpper
attr title  "packets received from higher layer, count"
scalar scenarioPRJP2.node[4].lo0.lo 	rcvdPkFromHL:sum(packetBytes) 	0
attr interpolationmode  none
attr source  packetReceivedFromUpper
attr title  "packets received from higher layer, sum(packetBytes)"
scalar scenarioPRJP2.node[4].lo0.lo 	passedUpPk:count 	0
attr interpolationmode  none
attr source  packetSentToUpper
attr title  "packets passed to higher layer, count"
scalar scenarioPRJP2.node[4].lo0.lo 	passedUpPk:sum(packetBytes) 	0
attr interpolationmode  none
attr source  packetSentToUpper
attr title  "packets passed to higher layer, sum(packetBytes)"
scalar scenarioPRJP2.node[5].app 	"Total sent" 	543
scalar scenarioPRJP2.node[5].app 	"Total received" 	118
scalar scenarioPRJP2.node[5].app 	"Total deleted" 	0
scalar scenarioPRJP2.node[5].app 	dropPk:count 	0
attr interpolationmode  none
attr source  dropPk
attr title  "packets dropped, count"
scalar scenarioPRJP2.node[5].app 	dropPk:sum(packetBytes) 	0
attr interpolationmode  none
attr source  dropPk
attr title  "packets dropped, sum(packetBytes)"
scalar scenarioPRJP2.node[5].app 	outOfOrderPk:count 	0
attr interpolationmode  none
attr source  outOfOrderPk
attr title  "packets received out of order, count"
scalar scenarioPRJP2.node[5].app 	outOfOrderPk:sum(packetBytes) 	0
attr interpolationmode  none
attr source  outOfOrderPk
attr title  "packets received out of order, sum(packetBytes)"
scalar scenarioPRJP2.node[5].app 	rcvdPk:count 	118
attr interpolationmode  none
attr source  rcvdPk
attr title  "packets received, count"
scalar scenarioPRJP2.node[5].app 	rcvdPk:sum(packetBytes) 	60416
attr interpolationmode  none
attr source  rcvdPk
attr title  "packets received, sum(packetBytes)"
statistic scenarioPRJP2.node[5].app 	endToEndDelay:histogram
field count 118
field mean 0.0018548291211441
field stddev 0.00078264239256035
field sum 0.218869836295
field sqrsum 0.00047763205251201
field min 0.000972585205
field max 0.00528128756
attr interpolationmode  none
attr source  messageAge(rcvdPk)
attr title  "delay, histogram"
attr unit  s
bin	-INF	0
bin	-0.0011817659725	0
bin	-0.00089451914883333	0
bin	-0.00060727232516667	0
bin	-0.0003200255015	0
bin	-3.2778677833333e-05	0
bin	0.00025446814583333	0
bin	0.0005417149695	0
bin	0.00082896179316667	28
bin	0.0011162086168333	20
bin	0.0014034554405	0
bin	0.0016907022641667	1
bin	0.0019779490878333	35
bin	0.0022651959115	30
bin	0.0025524427351667	0
bin	0.0028396895588333	0
bin	0.0031269363825	0
bin	0.0034141832061667	1
bin	0.0037014300298333	0
bin	0.0039886768535	0
bin	0.0042759236771667	1
bin	0.0045631705008333	0
bin	0.0048504173245	0
bin	0.0051376641481667	2
bin	0.0054249109718333	0
bin	0.0057121577955	0
bin	0.0059994046191667	0
bin	0.0062866514428333	0
bin	0.0065738982665	0
bin	0.0068611450901667	0
bin	0.0071483919138333	0
bin	0.0074356387375	0
scalar scenarioPRJP2.node[5].app 	sentPk:count 	543
attr interpolationmode  none
attr source  sentPk
attr title  "packets sent, count"
scalar scenarioPRJP2.node[5].app 	sentPk:sum(packetBytes) 	278016
attr interpolationmode  none
attr source  sentPk
attr title  "packets sent, sum(packetBytes)"
scalar scenarioPRJP2.node[5].udp 	droppedPkBadChecksum:count 	0
attr interpolationmode  none
attr title  "packets dropped (checksum error), count"
scalar scenarioPRJP2.node[5].udp 	droppedPkWrongPort:count 	0
attr interpolationmode  none
attr title  "packets dropped (wrong port), count"
scalar scenarioPRJP2.node[5].udp 	passedUpPk:count 	118
attr interpolationmode  none
attr title  "packets passed up, count"
scalar scenarioPRJP2.node[5].udp 	rcvdPk:count 	118
attr interpolationmode  none
attr source  rcvdPk
attr title  "packets received, count"
scalar scenarioPRJP2.node[5].udp 	rcvdPk:sum(packetBytes) 	61360
attr interpolationmode  none
attr source  rcvdPk
attr title  "packets received, sum(packetBytes)"
scalar scenarioPRJP2.node[5].udp 	sentPk:count 	543
attr interpolationmode  none
attr source  sentPk
attr title  "packets sent, count"
scalar scenarioPRJP2.node[5].udp 	sentPk:sum(packetBytes) 	282360
attr interpolationmode  none
attr source  sentPk
attr title  "packets sent, sum(packetBytes)"
scalar scenarioPRJP2.node[5].networkLayer.arp 	failedARPResolution:count 	0
attr title  "ARP failed resolutions, count"
scalar scenarioPRJP2.node[5].networkLayer.arp 	completedARPResolution:count 	13
attr title  "ARP completed resolutions, count"
scalar scenarioPRJP2.node[5].networkLayer.arp 	initiatedARPResolution:count 	3
attr title  "ARP initiated resolutions, count"
scalar scenarioPRJP2.node[5].networkLayer.arp 	sentReply:count 	6
attr title  "ARP replies sent, count"
scalar scenarioPRJP2.node[5].networkLayer.arp 	sentReq:count 	3
attr title  "ARP request sent, count"
scalar scenarioPRJP2.node[5].mobility 	startTime 	0.1
scalar scenarioPRJP2.node[5].mobility 	totalTime 	649.9
scalar scenarioPRJP2.node[5].mobility 	stopTime 	650
scalar scenarioPRJP2.node[5].mobility 	minSpeed 	5.8583367599116e-14
scalar scenarioPRJP2.node[5].mobility 	maxSpeed 	11.109977166527
scalar scenarioPRJP2.node[5].mobility 	totalDistance 	4696.9574177752
scalar scenarioPRJP2.node[5].mobility 	totalCO2Emission 	1309.9988004636
scalar scenarioPRJP2.node[5].wlan.mgmt 	dataQueueLen:max 	0
attr interpolationmode  sample-hold
attr title  "data queue length, max"
scalar scenarioPRJP2.node[5].wlan.mgmt 	dataQueueLen:timeavg 	0
attr interpolationmode  sample-hold
attr title  "data queue length, timeavg"
scalar scenarioPRJP2.node[5].wlan.mgmt 	dropPkByQueue:count 	0
attr interpolationmode  none
attr source  dropPkByQueue
attr title  "packets dropped by queue, count"
scalar scenarioPRJP2.node[5].wlan.mgmt 	dropPkByQueue:sum(packetBytes) 	0
attr interpolationmode  none
attr source  dropPkByQueue
attr title  "packets dropped by queue, sum(packetBytes)"
scalar scenarioPRJP2.node[5].wlan.mac 	"number of received packets" 	204
scalar scenarioPRJP2.node[5].wlan.mac 	"number of collisions" 	26
scalar scenarioPRJP2.node[5].wlan.mac 	"number of internal collisions" 	0
scalar scenarioPRJP2.node[5].wlan.mac 	"number of retry for AC 0" 	75
scalar scenarioPRJP2.node[5].wlan.mac 	"number of retry for AC 1" 	0
scalar scenarioPRJP2.node[5].wlan.mac 	"number of retry for AC 2" 	0
scalar scenarioPRJP2.node[5].wlan.mac 	"number of retry for AC 3" 	0
scalar scenarioPRJP2.node[5].wlan.mac 	"sent and received bits" 	10498304
scalar scenarioPRJP2.node[5].wlan.mac 	"sent packet within AC 0" 	207
scalar scenarioPRJP2.node[5].wlan.mac 	"sent packet within AC 1" 	0
scalar scenarioPRJP2.node[5].wlan.mac 	"sent packet within AC 2" 	0
scalar scenarioPRJP2.node[5].wlan.mac 	"sent packet within AC 3" 	0
scalar scenarioPRJP2.node[5].wlan.mac 	"sent in TXOP " 	0
scalar scenarioPRJP2.node[5].wlan.mac 	"sentWithoutRetry AC 0" 	203
scalar scenarioPRJP2.node[5].wlan.mac 	"sentWithoutRetry AC 1" 	0
scalar scenarioPRJP2.node[5].wlan.mac 	"sentWithoutRetry AC 2" 	0
scalar scenarioPRJP2.node[5].wlan.mac 	"sentWithoutRetry AC 3" 	0
scalar scenarioPRJP2.node[5].wlan.mac 	"numGivenUp AC 0" 	11
scalar scenarioPRJP2.node[5].wlan.mac 	"numGivenUp AC 1" 	0
scalar scenarioPRJP2.node[5].wlan.mac 	"numGivenUp AC 2" 	0
scalar scenarioPRJP2.node[5].wlan.mac 	"numGivenUp AC 3" 	0
scalar scenarioPRJP2.node[5].wlan.mac 	"numDropped AC 0" 	0
scalar scenarioPRJP2.node[5].wlan.mac 	"numDropped AC 1" 	0
scalar scenarioPRJP2.node[5].wlan.mac 	"numDropped AC 2" 	0
scalar scenarioPRJP2.node[5].wlan.mac 	"numDropped AC 3" 	0
scalar scenarioPRJP2.node[5].wlan.mac 	rcvdPkFromLL:count 	2958
attr interpolationmode  none
attr source  packetReceivedFromLower
attr title  "packets received from lower layer, count"
scalar scenarioPRJP2.node[5].wlan.mac 	rcvdPkFromLL:sum(packetBytes) 	2350962
attr interpolationmode  none
attr source  packetReceivedFromLower
attr title  "packets received from lower layer, sum(packetBytes)"
scalar scenarioPRJP2.node[5].wlan.mac 	sentDownPk:count 	1624
attr interpolationmode  none
attr source  packetSentToLower
attr title  "packets sent to lower layer, count"
scalar scenarioPRJP2.node[5].wlan.mac 	sentDownPk:sum(packetBytes) 	1364680
attr interpolationmode  none
attr source  packetSentToLower
attr title  "packets sent to lower layer, sum(packetBytes)"
scalar scenarioPRJP2.node[5].wlan.mac 	rcvdPkFromHL:count 	1345
attr interpolationmode  none
attr source  packetReceivedFromUpper
attr title  "packets received from higher layer, count"
scalar scenarioPRJP2.node[5].wlan.mac 	rcvdPkFromHL:sum(packetBytes) 	1318624
attr interpolationmode  none
attr source  packetReceivedFromUpper
attr title  "packets received from higher layer, sum(packetBytes)"
scalar scenarioPRJP2.node[5].wlan.mac 	passedUpPk:count 	2155
attr interpolationmode  none
attr source  packetSentToUpper
attr title  "packets passed to higher layer, count"
scalar scenarioPRJP2.node[5].wlan.mac 	passedUpPk:sum(packetBytes) 	2175340
attr interpolationmode  none
attr source  packetSentToUpper
attr title  "packets passed to higher layer, sum(packetBytes)"
statistic scenarioPRJP2.node[5].wlan.radio 	radioChannel:histogram
field count 1
field mean 3
field stddev -nan
field sum 3
field sqrsum 9
field min 3
field max 3
attr interpolationmode  sample-hold
attr source  radioChannelChanged
attr title  "Radio channel, histogram"
bin	-INF	0
bin	2	0
bin	3	1
bin	4	0
scalar scenarioPRJP2.node[5].wlan.radio 	transmissionState:count 	6496
attr interpolationmode  sample-hold
attr source  transmissionStateChanged
attr title  "Radio transmission state, count"
scalar scenarioPRJP2.node[5].wlan.radio 	receptionState:count 	9167
attr interpolationmode  sample-hold
attr source  receptionStateChanged
attr title  "Radio reception state, count"
scalar scenarioPRJP2.node[5].wlan.radio 	radioMode:count 	3250
[...]
scalar scenarioPRJP2.node[8].wlan.mac 	passedUpPk:count 	941
attr interpolationmode  none
attr source  packetSentToUpper
attr title  "packets passed to higher layer, count"
scalar scenarioPRJP2.node[8].wlan.mac 	passedUpPk:sum(packetBytes) 	960084
attr interpolationmode  none
attr source  packetSentToUpper
attr title  "packets passed to higher layer, sum(packetBytes)"
statistic scenarioPRJP2.node[8].wlan.radio 	radioChannel:histogram
field count 1
field mean 3
field stddev -nan
field sum 3
field sqrsum 9
field min 3
field max 3
attr interpolationmode  sample-hold
attr source  radioChannelChanged
attr title  "Radio channel, histogram"
bin	-INF	0
bin	2	0
bin	3	1
bin	4	0
scalar scenarioPRJP2.node[8].wlan.radio 	transmissionState:count 	5220
attr interpolationmode  sample-hold
attr source  transmissionStateChanged
attr title  "Radio transmission state, count"
scalar scenarioPRJP2.node[8].wlan.radio 	receptionState:count 	5355
attr interpolationmode  sample-hold
attr source  receptionStateChanged
attr title  "Radio reception state, count"
scalar scenarioPRJP2.node[8].wlan.radio 	radioMode:count 	2612
attr interpolationmode  sample-hold
attr source  radioModeChanged
attr title  "Radio mode, count"
statistic scenarioPRJP2.node[8].wlan.radio 	symbolErrorRate:histogram
field count 0
field mean -nan
field stddev -nan
field sum 0
field sqrsum 0
field min -nan
field max -nan
attr source  symbolErrorRate
attr title  "Symbol error rate, histogram"
bin	-INF	0
bin	-0.5	0
bin	-0.46666666666667	0
bin	-0.43333333333333	0
bin	-0.4	0
bin	-0.36666666666667	0
bin	-0.33333333333333	0
bin	-0.3	0
bin	-0.26666666666667	0
bin	-0.23333333333333	0
bin	-0.2	0
bin	-0.16666666666667	0
bin	-0.13333333333333	0
bin	-0.1	0
bin	-0.066666666666667	0
bin	-0.033333333333333	0
bin	0	0
bin	0.033333333333333	0
bin	0.066666666666667	0
bin	0.1	0
bin	0.13333333333333	0
bin	0.16666666666667	0
bin	0.2	0
bin	0.23333333333333	0
bin	0.26666666666667	0
bin	0.3	0
bin	0.33333333333333	0
bin	0.36666666666667	0
bin	0.4	0
bin	0.43333333333333	0
bin	0.46666666666667	0
bin	0.5	0
statistic scenarioPRJP2.node[8].wlan.radio 	bitErrorRate:histogram
field count 0
field mean -nan
field stddev -nan
field sum 0
field sqrsum 0
field min -nan
field max -nan
attr source  bitErrorRate
attr title  "Bit error rate, histogram"
bin	-INF	0
bin	-0.5	0
bin	-0.46666666666667	0
bin	-0.43333333333333	0
bin	-0.4	0
bin	-0.36666666666667	0
bin	-0.33333333333333	0
bin	-0.3	0
bin	-0.26666666666667	0
bin	-0.23333333333333	0
bin	-0.2	0
bin	-0.16666666666667	0
bin	-0.13333333333333	0
bin	-0.1	0
bin	-0.066666666666667	0
bin	-0.033333333333333	0
bin	0	0
bin	0.033333333333333	0
bin	0.066666666666667	0
bin	0.1	0
bin	0.13333333333333	0
bin	0.16666666666667	0
bin	0.2	0
bin	0.23333333333333	0
bin	0.26666666666667	0
bin	0.3	0
bin	0.33333333333333	0
bin	0.36666666666667	0
bin	0.4	0
bin	0.43333333333333	0
bin	0.46666666666667	0
bin	0.5	0
statistic scenarioPRJP2.node[8].wlan.radio 	packetErrorRate:histogram
field count 1372
field mean 0.0084188575163556
field stddev 0.090235429474088
field sum 11.55067251244
field sqrsum 11.260518742184
field min 0
field max 1
attr source  packetErrorRate
attr title  "Packet error rate, histogram"
bin	-INF	0
bin	-5.7526275576425e-08	0
bin	-4.9856105499568e-08	0
bin	-4.2185935422712e-08	0
bin	-3.4515765345855e-08	0
bin	-2.6845595268998e-08	0
bin	-1.9175425192142e-08	0
bin	-1.1505255115285e-08	0
bin	-3.8350850384283e-09	1347
bin	3.8350850384283e-09	0
bin	1.1505255115285e-08	0
bin	1.9175425192142e-08	0
bin	2.6845595268998e-08	0
bin	3.4515765345855e-08	0
bin	4.2185935422712e-08	0
bin	4.9856105499568e-08	0
bin	5.7526275576425e-08	0
bin	6.5196445653282e-08	0
bin	7.2866615730138e-08	0
bin	8.0536785806995e-08	0
bin	8.8206955883852e-08	1
bin	9.5877125960708e-08	0
bin	1.0354729603756e-07	0
bin	1.1121746611442e-07	1
bin	1.1888763619128e-07	0
bin	1.2655780626813e-07	0
bin	1.3422797634499e-07	0
bin	1.4189814642185e-07	0
bin	1.495683164987e-07	0
bin	1.5723848657556e-07	0
bin	1.6490865665242e-07	0
bin	1.7257882672927e-07	23
statistic scenarioPRJP2.node[8].wlan.radio 	minSNIR:histogram
field count 1372
field mean 6320.0525071386
field stddev 24825.988815378
field sum 8671112.0397942
field sqrsum 899789930413.37
field min 0.52560226611315
field max 177189.18940433
attr source  minSNIR
attr title  "Min SNIR, histogram"
bin	-INF	0
bin	-592.47278421496	0
bin	-512.34198772102	0
bin	-432.21119122709	0
bin	-352.08039473315	0
bin	-271.94959823922	0
bin	-191.81880174528	0
bin	-111.68800525135	0
bin	-31.557208757411	54
bin	48.573587736525	9
bin	128.70438423046	438
bin	208.8351807244	327
bin	288.96597721833	149
bin	369.09677371227	62
bin	449.2275702062	13
bin	529.35836670014	17
bin	609.48916319407	17
bin	689.61995968801	8
bin	769.75075618195	12
bin	849.88155267588	4
bin	930.01234916982	4
bin	1010.1431456638	1
bin	1090.2739421577	11
bin	1170.4047386516	6
bin	1250.5355351456	5
bin	1330.6663316395	2
bin	1410.7971281334	2
bin	1490.9279246274	2
bin	1571.0587211213	2
bin	1651.1895176152	5
bin	1731.3203141092	6
bin	1811.4511106031	216
scalar scenarioPRJP2.node[8].lo0.lo 	droppedPkBitError:count 	0
attr interpolationmode  none
attr source  dropPkBitError
attr title  "packets dropped/bit error, count"
scalar scenarioPRJP2.node[8].lo0.lo 	droppedPkBitError:sum(packetBytes) 	0
attr interpolationmode  none
attr source  dropPkBitError
attr title  "packets dropped/bit error, sum(packetBytes)"
scalar scenarioPRJP2.node[8].lo0.lo 	rcvdPkFromHL:count 	0
attr interpolationmode  none
attr source  packetReceivedFromUpper
attr title  "packets received from higher layer, count"
scalar scenarioPRJP2.node[8].lo0.lo 	rcvdPkFromHL:sum(packetBytes) 	0
attr interpolationmode  none
attr source  packetReceivedFromUpper
attr title  "packets received from higher layer, sum(packetBytes)"
scalar scenarioPRJP2.node[8].lo0.lo 	passedUpPk:count 	0
attr interpolationmode  none
attr source  packetSentToUpper
attr title  "packets passed to higher layer, count"
scalar scenarioPRJP2.node[8].lo0.lo 	passedUpPk:sum(packetBytes) 	0
attr interpolationmode  none
attr source  packetSentToUpper
attr title  "packets passed to higher layer, sum(packetBytes)"
scalar scenarioPRJP2.node[9].app 	"Total sent" 	544
scalar scenarioPRJP2.node[9].app 	"Total received" 	44
scalar scenarioPRJP2.node[9].app 	"Total deleted" 	0
scalar scenarioPRJP2.node[9].app 	dropPk:count 	0
attr interpolationmode  none
attr source  dropPk
attr title  "packets dropped, count"
scalar scenarioPRJP2.node[9].app 	dropPk:sum(packetBytes) 	0
attr interpolationmode  none
attr source  dropPk
attr title  "packets dropped, sum(packetBytes)"
scalar scenarioPRJP2.node[9].app 	outOfOrderPk:count 	0
attr interpolationmode  none
attr source  outOfOrderPk
attr title  "packets received out of order, count"
scalar scenarioPRJP2.node[9].app 	outOfOrderPk:sum(packetBytes) 	0
attr interpolationmode  none
attr source  outOfOrderPk
attr title  "packets received out of order, sum(packetBytes)"
scalar scenarioPRJP2.node[9].app 	rcvdPk:count 	44
attr interpolationmode  none
attr source  rcvdPk
attr title  "packets received, count"
scalar scenarioPRJP2.node[9].app 	rcvdPk:sum(packetBytes) 	22528
attr interpolationmode  none
attr source  rcvdPk
attr title  "packets received, sum(packetBytes)"
statistic scenarioPRJP2.node[9].app 	endToEndDelay:histogram
field count 44
field mean 0.0023037016234545
field stddev 0.0014834834317878
field sum 0.101362871432
field sqrsum 0.00032814090444864
field min 0.00097262276
field max 0.008994770836
attr interpolationmode  none
attr source  messageAge(rcvdPk)
attr title  "delay, histogram"
attr unit  s
bin	-INF	0
bin	-0.003038451278	0
bin	-0.0025036414062667	0
bin	-0.0019688315345333	0
bin	-0.0014340216628	0
bin	-0.00089921179106667	0
bin	-0.00036440191933333	0
bin	0.0001704079524	0
bin	0.00070521782413333	14
bin	0.0012400276958667	0
bin	0.0017748375676	20
bin	0.0023096474393333	3
bin	0.0028444573110667	0
bin	0.0033792671828	1
bin	0.0039140770545333	3
bin	0.0044488869262667	1
bin	0.004983696798	1
bin	0.0055185066697333	0
bin	0.0060533165414667	0
bin	0.0065881264132	0
bin	0.0071229362849333	0
bin	0.0076577461566667	0
bin	0.0081925560284	0
bin	0.0087273659001333	1
bin	0.0092621757718667	0
bin	0.0097969856436	0
bin	0.010331795515333	0
bin	0.010866605387067	0
bin	0.0114014152588	0
bin	0.011936225130533	0
bin	0.012471035002267	0
bin	0.013005844874	0
scalar scenarioPRJP2.node[9].app 	sentPk:count 	544
attr interpolationmode  none
attr source  sentPk
attr title  "packets sent, count"
scalar scenarioPRJP2.node[9].app 	sentPk:sum(packetBytes) 	278528
attr interpolationmode  none
attr source  sentPk
attr title  "packets sent, sum(packetBytes)"
scalar scenarioPRJP2.node[9].udp 	droppedPkBadChecksum:count 	0
attr interpolationmode  none
attr title  "packets dropped (checksum error), count"
scalar scenarioPRJP2.node[9].udp 	droppedPkWrongPort:count 	0
attr interpolationmode  none
attr title  "packets dropped (wrong port), count"
scalar scenarioPRJP2.node[9].udp 	passedUpPk:count 	44
attr interpolationmode  none
attr title  "packets passed up, count"
scalar scenarioPRJP2.node[9].udp 	rcvdPk:count 	44
attr interpolationmode  none
attr source  rcvdPk
attr title  "packets received, count"
scalar scenarioPRJP2.node[9].udp 	rcvdPk:sum(packetBytes) 	22880
attr interpolationmode  none
attr source  rcvdPk
attr title  "packets received, sum(packetBytes)"
scalar scenarioPRJP2.node[9].udp 	sentPk:count 	544
attr interpolationmode  none
attr source  sentPk
attr title  "packets sent, count"
scalar scenarioPRJP2.node[9].udp 	sentPk:sum(packetBytes) 	282880
attr interpolationmode  none
attr source  sentPk
attr title  "packets sent, sum(packetBytes)"
scalar scenarioPRJP2.node[9].networkLayer.arp 	failedARPResolution:count 	8
attr title  "ARP failed resolutions, count"
scalar scenarioPRJP2.node[9].networkLayer.arp 	completedARPResolution:count 	5
attr title  "ARP completed resolutions, count"
scalar scenarioPRJP2.node[9].networkLayer.arp 	initiatedARPResolution:count 	9
attr title  "ARP initiated resolutions, count"
scalar scenarioPRJP2.node[9].networkLayer.arp 	sentReply:count 	2
attr title  "ARP replies sent, count"
scalar scenarioPRJP2.node[9].networkLayer.arp 	sentReq:count 	25
attr title  "ARP request sent, count"
scalar scenarioPRJP2.node[9].mobility 	startTime 	0.1
scalar scenarioPRJP2.node[9].mobility 	totalTime 	649.9
scalar scenarioPRJP2.node[9].mobility 	stopTime 	650
scalar scenarioPRJP2.node[9].mobility 	minSpeed 	5.8548402873788e-14
scalar scenarioPRJP2.node[9].mobility 	maxSpeed 	11.109991520206
scalar scenarioPRJP2.node[9].mobility 	totalDistance 	4311.4802249386
scalar scenarioPRJP2.node[9].mobility 	totalCO2Emission 	1261.5718428164
scalar scenarioPRJP2.node[9].wlan.mgmt 	dataQueueLen:max 	0
attr interpolationmode  sample-hold
attr title  "data queue length, max"
scalar scenarioPRJP2.node[9].wlan.mgmt 	dataQueueLen:timeavg 	0
attr interpolationmode  sample-hold
attr title  "data queue length, timeavg"
scalar scenarioPRJP2.node[9].wlan.mgmt 	dropPkByQueue:count 	0
attr interpolationmode  none
attr source  dropPkByQueue
attr title  "packets dropped by queue, count"
scalar scenarioPRJP2.node[9].wlan.mgmt 	dropPkByQueue:sum(packetBytes) 	0
attr interpolationmode  none
attr source  dropPkByQueue
attr title  "packets dropped by queue, sum(packetBytes)"
scalar scenarioPRJP2.node[9].wlan.mac 	"number of received packets" 	45
scalar scenarioPRJP2.node[9].wlan.mac 	"number of collisions" 	8
scalar scenarioPRJP2.node[9].wlan.mac 	"number of internal collisions" 	0
scalar scenarioPRJP2.node[9].wlan.mac 	"number of retry for AC 0" 	37
scalar scenarioPRJP2.node[9].wlan.mac 	"number of retry for AC 1" 	0
scalar scenarioPRJP2.node[9].wlan.mac 	"number of retry for AC 2" 	0
scalar scenarioPRJP2.node[9].wlan.mac 	"number of retry for AC 3" 	0
scalar scenarioPRJP2.node[9].wlan.mac 	"sent and received bits" 	8493824
scalar scenarioPRJP2.node[9].wlan.mac 	"sent packet within AC 0" 	32
scalar scenarioPRJP2.node[9].wlan.mac 	"sent packet within AC 1" 	0
scalar scenarioPRJP2.node[9].wlan.mac 	"sent packet within AC 2" 	0
scalar scenarioPRJP2.node[9].wlan.mac 	"sent packet within AC 3" 	0
scalar scenarioPRJP2.node[9].wlan.mac 	"sent in TXOP " 	0
scalar scenarioPRJP2.node[9].wlan.mac 	"sentWithoutRetry AC 0" 	29
scalar scenarioPRJP2.node[9].wlan.mac 	"sentWithoutRetry AC 1" 	0
scalar scenarioPRJP2.node[9].wlan.mac 	"sentWithoutRetry AC 2" 	0
scalar scenarioPRJP2.node[9].wlan.mac 	"sentWithoutRetry AC 3" 	0
scalar scenarioPRJP2.node[9].wlan.mac 	"numGivenUp AC 0" 	5
scalar scenarioPRJP2.node[9].wlan.mac 	"numGivenUp AC 1" 	0
scalar scenarioPRJP2.node[9].wlan.mac 	"numGivenUp AC 2" 	0
scalar scenarioPRJP2.node[9].wlan.mac 	"numGivenUp AC 3" 	0
scalar scenarioPRJP2.node[9].wlan.mac 	"numDropped AC 0" 	0
scalar scenarioPRJP2.node[9].wlan.mac 	"numDropped AC 1" 	0
scalar scenarioPRJP2.node[9].wlan.mac 	"numDropped AC 2" 	0
scalar scenarioPRJP2.node[9].wlan.mac 	"numDropped AC 3" 	0
scalar scenarioPRJP2.node[9].wlan.mac 	rcvdPkFromLL:count 	1183
attr interpolationmode  none
attr source  packetReceivedFromLower
attr title  "packets received from lower layer, count"
scalar scenarioPRJP2.node[9].wlan.mac 	rcvdPkFromLL:sum(packetBytes) 	979004
attr interpolationmode  none
attr source  packetReceivedFromLower
attr title  "packets received from lower layer, sum(packetBytes)"
scalar scenarioPRJP2.node[9].wlan.mac 	sentDownPk:count 	1124
attr interpolationmode  none
attr source  packetSentToLower
attr title  "packets sent to lower layer, count"
scalar scenarioPRJP2.node[9].wlan.mac 	sentDownPk:sum(packetBytes) 	1086550
attr interpolationmode  none
attr source  packetSentToLower
attr title  "packets sent to lower layer, sum(packetBytes)"
scalar scenarioPRJP2.node[9].wlan.mac 	rcvdPkFromHL:count 	1042
attr interpolationmode  none
attr source  packetReceivedFromUpper
attr title  "packets received from higher layer, count"
scalar scenarioPRJP2.node[9].wlan.mac 	rcvdPkFromHL:sum(packetBytes) 	1064608
attr interpolationmode  none
attr source  packetReceivedFromUpper
attr title  "packets received from higher layer, sum(packetBytes)"
scalar scenarioPRJP2.node[9].wlan.mac 	passedUpPk:count 	851
attr interpolationmode  none
attr source  packetSentToUpper
attr title  "packets passed to higher layer, count"
scalar scenarioPRJP2.node[9].wlan.mac 	passedUpPk:sum(packetBytes) 	878012
attr interpolationmode  none
attr source  packetSentToUpper
attr title  "packets passed to higher layer, sum(packetBytes)"
statistic scenarioPRJP2.node[9].wlan.radio 	radioChannel:histogram
field count 1
field mean 3
field stddev -nan
field sum 3
field sqrsum 9
field min 3
field max 3
attr interpolationmode  sample-hold
attr source  radioChannelChanged
attr title  "Radio channel, histogram"
bin	-INF	0
bin	2	0
bin	3	1
bin	4	0
scalar scenarioPRJP2.node[9].wlan.radio 	transmissionState:count 	4496
attr interpolationmode  sample-hold
attr source  transmissionStateChanged
attr title  "Radio transmission state, count"
scalar scenarioPRJP2.node[9].wlan.radio 	receptionState:count 	4615
attr interpolationmode  sample-hold
attr source  receptionStateChanged
attr title  "Radio reception state, count"
scalar scenarioPRJP2.node[9].wlan.radio 	radioMode:count 	2250
attr interpolationmode  sample-hold
attr source  radioModeChanged
attr title  "Radio mode, count"
statistic scenarioPRJP2.node[9].wlan.radio 	symbolErrorRate:histogram
field count 0
field mean -nan
field stddev -nan
field sum 0
field sqrsum 0
field min -nan
field max -nan
attr source  symbolErrorRate
attr title  "Symbol error rate, histogram"
bin	-INF	0
bin	-0.5	0
bin	-0.46666666666667	0
bin	-0.43333333333333	0
bin	-0.4	0
bin	-0.36666666666667	0
bin	-0.33333333333333	0
bin	-0.3	0
bin	-0.26666666666667	0
bin	-0.23333333333333	0
bin	-0.2	0
bin	-0.16666666666667	0
bin	-0.13333333333333	0
bin	-0.1	0
bin	-0.066666666666667	0
bin	-0.033333333333333	0
bin	0	0
bin	0.033333333333333	0
bin	0.066666666666667	0
bin	0.1	0
bin	0.13333333333333	0
bin	0.16666666666667	0
bin	0.2	0
bin	0.23333333333333	0
bin	0.26666666666667	0
bin	0.3	0
bin	0.33333333333333	0
bin	0.36666666666667	0
bin	0.4	0
bin	0.43333333333333	0
bin	0.46666666666667	0
bin	0.5	0
statistic scenarioPRJP2.node[9].wlan.radio 	bitErrorRate:histogram
field count 0
field mean -nan
field stddev -nan
field sum 0
field sqrsum 0
field min -nan
field max -nan
attr source  bitErrorRate
attr title  "Bit error rate, histogram"
bin	-INF	0
bin	-0.5	0
bin	-0.46666666666667	0
bin	-0.43333333333333	0
bin	-0.4	0
bin	-0.36666666666667	0
bin	-0.33333333333333	0
bin	-0.3	0
bin	-0.26666666666667	0
bin	-0.23333333333333	0
bin	-0.2	0
bin	-0.16666666666667	0
bin	-0.13333333333333	0
bin	-0.1	0
bin	-0.066666666666667	0
bin	-0.033333333333333	0
bin	0	0
bin	0.033333333333333	0
bin	0.066666666666667	0
bin	0.1	0
bin	0.13333333333333	0
bin	0.16666666666667	0
bin	0.2	0
bin	0.23333333333333	0
bin	0.26666666666667	0
bin	0.3	0
bin	0.33333333333333	0
bin	0.36666666666667	0
bin	0.4	0
bin	0.43333333333333	0
bin	0.46666666666667	0
bin	0.5	0
statistic scenarioPRJP2.node[9].wlan.radio 	packetErrorRate:histogram
field count 1183
field mean 0.0052155903952242
field stddev 0.065188234595256
field sum 6.1700434375503
field sqrsum 5.0550964281327
field min 0
field max 1
attr source  packetErrorRate
attr title  "Packet error rate, histogram"
bin	-INF	0
bin	-0.5	0
bin	-0.46666666666667	0
bin	-0.43333333333333	0
bin	-0.4	0
bin	-0.36666666666667	0
bin	-0.33333333333333	0
bin	-0.3	0
bin	-0.26666666666667	0
bin	-0.23333333333333	0
bin	-0.2	0
bin	-0.16666666666667	0
bin	-0.13333333333333	0
bin	-0.1	0
bin	-0.066666666666667	0
bin	-0.033333333333333	0
bin	0	1172
bin	0.033333333333333	0
bin	0.066666666666667	1
bin	0.1	0
bin	0.13333333333333	0
bin	0.16666666666667	3
bin	0.2	1
bin	0.23333333333333	0
bin	0.26666666666667	0
bin	0.3	0
bin	0.33333333333333	0
bin	0.36666666666667	0
bin	0.4	0
bin	0.43333333333333	0
bin	0.46666666666667	0
bin	0.5	6
statistic scenarioPRJP2.node[9].wlan.radio 	minSNIR:histogram
field count 1183
field mean 1435.1464860083
field stddev 6299.7076354672
field sum 1697778.2929478
field sqrsum 49345786408.72
field min 1.2661477662869
field max 74746.008157952
attr source  minSNIR
attr title  "Min SNIR, histogram"
bin	-INF	0
bin	-318.50465402013	0
bin	-274.98979921846	0
bin	-231.47494441679	0
bin	-187.96008961512	0
bin	-144.44523481345	0
bin	-100.93038001178	0
bin	-57.415525210109	0
bin	-13.900670408438	51
bin	29.614184393232	5
bin	73.129039194902	2
bin	116.64389399657	149
bin	160.15874879824	398
bin	203.67360359991	133
bin	247.18845840158	163
bin	290.70331320325	28
bin	334.21816800493	16
bin	377.7330228066	21
bin	421.24787760827	12
bin	464.76273240994	17
bin	508.27758721161	22
bin	551.79244201328	9
bin	595.30729681495	21
bin	638.82215161662	4
bin	682.33700641829	2
bin	725.85186121996	3
bin	769.36671602163	2
bin	812.8815708233	4
bin	856.39642562497	0
bin	899.91128042664	0
bin	943.42613522831	0
bin	986.94099002998	121
scalar scenarioPRJP2.node[9].lo0.lo 	droppedPkBitError:count 	0
attr interpolationmode  none
attr source  dropPkBitError
attr title  "packets dropped/bit error, count"
scalar scenarioPRJP2.node[9].lo0.lo 	droppedPkBitError:sum(packetBytes) 	0
attr interpolationmode  none
attr source  dropPkBitError
attr title  "packets dropped/bit error, sum(packetBytes)"
scalar scenarioPRJP2.node[9].lo0.lo 	rcvdPkFromHL:count 	0
attr interpolationmode  none
attr source  packetReceivedFromUpper
attr title  "packets received from higher layer, count"
scalar scenarioPRJP2.node[9].lo0.lo 	rcvdPkFromHL:sum(packetBytes) 	0
attr interpolationmode  none
attr source  packetReceivedFromUpper
attr title  "packets received from higher layer, sum(packetBytes)"
scalar scenarioPRJP2.node[9].lo0.lo 	passedUpPk:count 	0
attr interpolationmode  none
attr source  packetSentToUpper
attr title  "packets passed to higher layer, count"
scalar scenarioPRJP2.node[9].lo0.lo 	passedUpPk:sum(packetBytes) 	0
attr interpolationmode  none
attr source  packetSentToUpper
attr title  "packets passed to higher layer, sum(packetBytes)"
