version 2
run DYMOUM-FS-10n-0-20151019-19:37:04-14651
attr configname DYMOUM-FS-10n
attr datetime 20151019-19:37:04
attr experiment DYMOUM-FS-10n
attr inifile omnetpp.ini
attr iterationvars ""
attr iterationvars2 $repetition=0
attr measurement ""
attr network Prj_Part2.scenarioPRJP2
attr processid 14651
attr repetition 0
attr replication #0
attr resultdir results
attr runnumber 0
attr seedset 0

scalar scenarioPRJP2.radioMedium.propagation 	"Arrival computation count" 	64656
scalar scenarioPRJP2.radioMedium 	"transmission count" 	7184
scalar scenarioPRJP2.radioMedium 	"radio frame send count" 	64656
scalar scenarioPRJP2.radioMedium 	"reception computation count" 	64525
scalar scenarioPRJP2.radioMedium 	"interference computation count" 	197738
scalar scenarioPRJP2.radioMedium 	"reception decision computation count" 	11689
scalar scenarioPRJP2.radioMedium 	"listening decision computation count" 	122030
scalar scenarioPRJP2.radioMedium 	"reception cache hit" 	71.873011167973
attr unit  %
scalar scenarioPRJP2.radioMedium 	"interference cache hit" 	50
attr unit  %
scalar scenarioPRJP2.radioMedium 	"noise cache hit" 	0
attr unit  %
scalar scenarioPRJP2.radioMedium 	"snir cache hit" 	0
attr unit  %
scalar scenarioPRJP2.radioMedium 	"reception decision cache hit" 	0
attr unit  %
scalar scenarioPRJP2.node[0].app 	"Total sent" 	541
scalar scenarioPRJP2.node[0].app 	"Total received" 	104
scalar scenarioPRJP2.node[0].app 	"Total deleted" 	0
scalar scenarioPRJP2.node[0].app 	dropPk:count 	0
attr interpolationmode  none
attr source  dropPk
attr title  "packets dropped, count"
scalar scenarioPRJP2.node[0].app 	dropPk:sum(packetBytes) 	0
attr interpolationmode  none
attr source  dropPk
attr title  "packets dropped, sum(packetBytes)"
scalar scenarioPRJP2.node[0].app 	outOfOrderPk:count 	0
attr interpolationmode  none
attr source  outOfOrderPk
attr title  "packets received out of order, count"
scalar scenarioPRJP2.node[0].app 	outOfOrderPk:sum(packetBytes) 	0
attr interpolationmode  none
attr source  outOfOrderPk
attr title  "packets received out of order, sum(packetBytes)"
scalar scenarioPRJP2.node[0].app 	rcvdPk:count 	104
attr interpolationmode  none
attr source  rcvdPk
attr title  "packets received, count"
scalar scenarioPRJP2.node[0].app 	rcvdPk:sum(packetBytes) 	53248
attr interpolationmode  none
attr source  rcvdPk
attr title  "packets received, sum(packetBytes)"
statistic scenarioPRJP2.node[0].app 	endToEndDelay:histogram
field count 104
field mean 12.07448710654
field stddev 12.111856830609
field sum 1255.7466590802
field sqrsum 30272.295660318
field min 0.0009723925
field max 34.99333478987
attr interpolationmode  none
attr source  messageAge(rcvdPk)
attr title  "delay, histogram"
attr unit  s
bin	-INF	0
bin	-17.495208806185	0
bin	-15.16238464636	0
bin	-12.829560486536	0
bin	-10.496736326711	0
bin	-8.1639121668863	0
bin	-5.8310880070617	0
bin	-3.498263847237	0
bin	-1.1654396874123	42
bin	1.1673844724123	0
bin	3.500208632237	2
bin	5.8330327920617	4
bin	8.1658569518863	6
bin	10.498681111711	4
bin	12.831505271536	4
bin	15.16432943136	6
bin	17.497153591185	4
bin	19.82997775101	5
bin	22.162801910834	5
bin	24.495626070659	4
bin	26.828450230484	5
bin	29.161274390308	5
bin	31.494098550133	4
bin	33.826922709958	4
bin	36.159746869782	0
bin	38.492571029607	0
bin	40.825395189432	0
bin	43.158219349256	0
bin	45.491043509081	0
bin	47.823867668906	0
bin	50.15669182873	0
bin	52.489515988555	0
scalar scenarioPRJP2.node[0].app 	sentPk:count 	541
attr interpolationmode  none
attr source  sentPk
attr title  "packets sent, count"
scalar scenarioPRJP2.node[0].app 	sentPk:sum(packetBytes) 	276992
attr interpolationmode  none
attr source  sentPk
attr title  "packets sent, sum(packetBytes)"
scalar scenarioPRJP2.node[0].udp 	droppedPkBadChecksum:count 	0
attr interpolationmode  none
attr title  "packets dropped (checksum error), count"
scalar scenarioPRJP2.node[0].udp 	droppedPkWrongPort:count 	0
attr interpolationmode  none
attr title  "packets dropped (wrong port), count"
scalar scenarioPRJP2.node[0].udp 	passedUpPk:count 	104
attr interpolationmode  none
attr title  "packets passed up, count"
scalar scenarioPRJP2.node[0].udp 	rcvdPk:count 	104
attr interpolationmode  none
attr source  rcvdPk
attr title  "packets received, count"
scalar scenarioPRJP2.node[0].udp 	rcvdPk:sum(packetBytes) 	54080
attr interpolationmode  none
attr source  rcvdPk
attr title  "packets received, sum(packetBytes)"
scalar scenarioPRJP2.node[0].udp 	sentPk:count 	541
attr interpolationmode  none
attr source  sentPk
attr title  "packets sent, count"
scalar scenarioPRJP2.node[0].udp 	sentPk:sum(packetBytes) 	281320
attr interpolationmode  none
attr source  sentPk
attr title  "packets sent, sum(packetBytes)"
scalar scenarioPRJP2.node[0].networkLayer.arp 	failedARPResolution:count 	0
attr title  "ARP failed resolutions, count"
scalar scenarioPRJP2.node[0].networkLayer.arp 	completedARPResolution:count 	13
attr title  "ARP completed resolutions, count"
scalar scenarioPRJP2.node[0].networkLayer.arp 	initiatedARPResolution:count 	4
attr title  "ARP initiated resolutions, count"
scalar scenarioPRJP2.node[0].networkLayer.arp 	sentReply:count 	8
attr title  "ARP replies sent, count"
scalar scenarioPRJP2.node[0].networkLayer.arp 	sentReq:count 	4
attr title  "ARP request sent, count"
scalar scenarioPRJP2.node[0].mobility 	startTime 	0.1
scalar scenarioPRJP2.node[0].mobility 	totalTime 	649.9
scalar scenarioPRJP2.node[0].mobility 	stopTime 	650
scalar scenarioPRJP2.node[0].mobility 	minSpeed 	5.8670813587507e-14
scalar scenarioPRJP2.node[0].mobility 	maxSpeed 	11.109923564079
scalar scenarioPRJP2.node[0].mobility 	totalDistance 	4059.9121813919
scalar scenarioPRJP2.node[0].mobility 	totalCO2Emission 	1266.2115359067
scalar scenarioPRJP2.node[0].wlan.mgmt 	dataQueueLen:max 	0
attr interpolationmode  sample-hold
attr title  "data queue length, max"
scalar scenarioPRJP2.node[0].wlan.mgmt 	dataQueueLen:timeavg 	0
attr interpolationmode  sample-hold
attr title  "data queue length, timeavg"
scalar scenarioPRJP2.node[0].wlan.mgmt 	dropPkByQueue:count 	0
attr interpolationmode  none
attr source  dropPkByQueue
attr title  "packets dropped by queue, count"
scalar scenarioPRJP2.node[0].wlan.mgmt 	dropPkByQueue:sum(packetBytes) 	0
attr interpolationmode  none
attr source  dropPkByQueue
attr title  "packets dropped by queue, sum(packetBytes)"
scalar scenarioPRJP2.node[0].wlan.mac 	"number of received packets" 	203
scalar scenarioPRJP2.node[0].wlan.mac 	"number of collisions" 	27
scalar scenarioPRJP2.node[0].wlan.mac 	"number of internal collisions" 	0
scalar scenarioPRJP2.node[0].wlan.mac 	"number of retry for AC 0" 	255
scalar scenarioPRJP2.node[0].wlan.mac 	"number of retry for AC 1" 	0
scalar scenarioPRJP2.node[0].wlan.mac 	"number of retry for AC 2" 	0
scalar scenarioPRJP2.node[0].wlan.mac 	"number of retry for AC 3" 	0
scalar scenarioPRJP2.node[0].wlan.mac 	"sent and received bits" 	1444376
scalar scenarioPRJP2.node[0].wlan.mac 	"sent packet within AC 0" 	291
scalar scenarioPRJP2.node[0].wlan.mac 	"sent packet within AC 1" 	0
scalar scenarioPRJP2.node[0].wlan.mac 	"sent packet within AC 2" 	0
scalar scenarioPRJP2.node[0].wlan.mac 	"sent packet within AC 3" 	0
scalar scenarioPRJP2.node[0].wlan.mac 	"sent in TXOP " 	0
scalar scenarioPRJP2.node[0].wlan.mac 	"sentWithoutRetry AC 0" 	289
scalar scenarioPRJP2.node[0].wlan.mac 	"sentWithoutRetry AC 1" 	0
scalar scenarioPRJP2.node[0].wlan.mac 	"sentWithoutRetry AC 2" 	0
scalar scenarioPRJP2.node[0].wlan.mac 	"sentWithoutRetry AC 3" 	0
scalar scenarioPRJP2.node[0].wlan.mac 	"numGivenUp AC 0" 	42
scalar scenarioPRJP2.node[0].wlan.mac 	"numGivenUp AC 1" 	0
scalar scenarioPRJP2.node[0].wlan.mac 	"numGivenUp AC 2" 	0
scalar scenarioPRJP2.node[0].wlan.mac 	"numGivenUp AC 3" 	0
scalar scenarioPRJP2.node[0].wlan.mac 	"numDropped AC 0" 	0
scalar scenarioPRJP2.node[0].wlan.mac 	"numDropped AC 1" 	0
scalar scenarioPRJP2.node[0].wlan.mac 	"numDropped AC 2" 	0
scalar scenarioPRJP2.node[0].wlan.mac 	"numDropped AC 3" 	0
scalar scenarioPRJP2.node[0].wlan.mac 	rcvdPkFromLL:count 	1622
attr interpolationmode  none
attr source  packetReceivedFromLower
attr title  "packets received from lower layer, count"
scalar scenarioPRJP2.node[0].wlan.mac 	rcvdPkFromLL:sum(packetBytes) 	569235
attr interpolationmode  none
attr source  packetReceivedFromLower
attr title  "packets received from lower layer, sum(packetBytes)"
scalar scenarioPRJP2.node[0].wlan.mac 	sentDownPk:count 	954
attr interpolationmode  none
attr source  packetSentToLower
attr title  "packets sent to lower layer, count"
scalar scenarioPRJP2.node[0].wlan.mac 	sentDownPk:sum(packetBytes) 	354461
attr interpolationmode  none
attr source  packetSentToLower
attr title  "packets sent to lower layer, sum(packetBytes)"
scalar scenarioPRJP2.node[0].wlan.mac 	rcvdPkFromHL:count 	496
attr interpolationmode  none
attr source  packetReceivedFromUpper
attr title  "packets received from higher layer, count"
scalar scenarioPRJP2.node[0].wlan.mac 	rcvdPkFromHL:sum(packetBytes) 	204739
attr interpolationmode  none
attr source  packetReceivedFromUpper
attr title  "packets received from higher layer, sum(packetBytes)"
scalar scenarioPRJP2.node[0].wlan.mac 	passedUpPk:count 	479
attr interpolationmode  none
attr source  packetSentToUpper
attr title  "packets passed to higher layer, count"
scalar scenarioPRJP2.node[0].wlan.mac 	passedUpPk:sum(packetBytes) 	142572
attr interpolationmode  none
attr source  packetSentToUpper
attr title  "packets passed to higher layer, sum(packetBytes)"
statistic scenarioPRJP2.node[0].wlan.radio 	radioChannel:histogram
field count 1
field mean 3
field stddev -nan
field sum 3
field sqrsum 9
field min 3
field max 3
attr interpolationmode  sample-hold
attr source  radioChannelChanged
attr title  "Radio channel, histogram"
bin	-INF	0
bin	2	0
bin	3	1
bin	4	0
scalar scenarioPRJP2.node[0].wlan.radio 	transmissionState:count 	3816
attr interpolationmode  sample-hold
attr source  transmissionStateChanged
attr title  "Radio transmission state, count"
scalar scenarioPRJP2.node[0].wlan.radio 	receptionState:count 	5159
attr interpolationmode  sample-hold
attr source  receptionStateChanged
attr title  "Radio reception state, count"
scalar scenarioPRJP2.node[0].wlan.radio 	radioMode:count 	1910
attr interpolationmode  sample-hold
attr source  radioModeChanged
attr title  "Radio mode, count"
statistic scenarioPRJP2.node[0].wlan.radio 	symbolErrorRate:histogram
field count 0
field mean -nan
field stddev -nan
field sum 0
field sqrsum 0
field min -nan
field max -nan
attr source  symbolErrorRate
attr title  "Symbol error rate, histogram"
bin	-INF	0
bin	-0.5	0
bin	-0.46666666666667	0
bin	-0.43333333333333	0
bin	-0.4	0
bin	-0.36666666666667	0
bin	-0.33333333333333	0
bin	-0.3	0
bin	-0.26666666666667	0
bin	-0.23333333333333	0
bin	-0.2	0
bin	-0.16666666666667	0
bin	-0.13333333333333	0
bin	-0.1	0
bin	-0.066666666666667	0
bin	-0.033333333333333	0
bin	0	0
bin	0.033333333333333	0
bin	0.066666666666667	0
bin	0.1	0
bin	0.13333333333333	0
bin	0.16666666666667	0
bin	0.2	0
bin	0.23333333333333	0
bin	0.26666666666667	0
bin	0.3	0
bin	0.33333333333333	0
bin	0.36666666666667	0
bin	0.4	0
bin	0.43333333333333	0
bin	0.46666666666667	0
bin	0.5	0
statistic scenarioPRJP2.node[0].wlan.radio 	bitErrorRate:histogram
field count 0
field mean -nan
field stddev -nan
field sum 0
field sqrsum 0
field min -nan
field max -nan
attr source  bitErrorRate
attr title  "Bit error rate, histogram"
bin	-INF	0
bin	-0.5	0
bin	-0.46666666666667	0
bin	-0.43333333333333	0
bin	-0.4	0
bin	-0.36666666666667	0
bin	-0.33333333333333	0
bin	-0.3	0
bin	-0.26666666666667	0
bin	-0.23333333333333	0
bin	-0.2	0
bin	-0.16666666666667	0
bin	-0.13333333333333	0
bin	-0.1	0
bin	-0.066666666666667	0
bin	-0.033333333333333	0
bin	0	0
bin	0.033333333333333	0
bin	0.066666666666667	0
bin	0.1	0
bin	0.13333333333333	0
bin	0.16666666666667	0
bin	0.2	0
bin	0.23333333333333	0
bin	0.26666666666667	0
bin	0.3	0
bin	0.33333333333333	0
bin	0.36666666666667	0
bin	0.4	0
bin	0.43333333333333	0
bin	0.46666666666667	0
bin	0.5	0
statistic scenarioPRJP2.node[0].wlan.radio 	packetErrorRate:histogram
field count 1622
field mean 0.01562544420648
field stddev 0.12302293900377
field sum 25.344470502911
field sqrsum 24.929275757529
field min 0
field max 1
attr source  packetErrorRate
attr title  "Packet error rate, histogram"
bin	-INF	0
bin	-0.0001525678023655	0
bin	-0.00013222542871677	0
bin	-0.00011188305506803	0
bin	-9.15406814193e-05	0
bin	-7.1198307770567e-05	0
bin	-5.0855934121833e-05	0
bin	-3.05135604731e-05	0
bin	-1.0171186824367e-05	1588
bin	1.0171186824367e-05	0
bin	3.05135604731e-05	0
bin	5.0855934121833e-05	0
bin	7.1198307770567e-05	0
bin	9.15406814193e-05	0
bin	0.00011188305506803	0
bin	0.00013222542871677	0
bin	0.0001525678023655	0
bin	0.00017291017601423	0
bin	0.00019325254966297	0
bin	0.0002135949233117	1
bin	0.00023393729696043	0
bin	0.00025427967060917	0
bin	0.0002746220442579	0
bin	0.00029496441790663	1
bin	0.00031530679155537	0
bin	0.0003356491652041	0
bin	0.00035599153885283	0
bin	0.00037633391250157	0
bin	0.0003966762861503	0
bin	0.00041701865979903	0
bin	0.00043736103344777	0
bin	0.0004577034070965	32
statistic scenarioPRJP2.node[0].wlan.radio 	minSNIR:histogram
field count 1622
field mean 37709.913835714
field stddev 140602.04244642
field sum 61165480.241529
field sqrsum 34351987554937
field min 0.00074312330292157
field max 767777.84842591
attr source  minSNIR
attr title  "Min SNIR, histogram"
bin	-INF	0
bin	-1706.9718303372	0
bin	-1478.4926989981	0
bin	-1250.0135676591	0
bin	-1021.53443632	0
bin	-793.055304981	0
bin	-564.57617364196	0
bin	-336.09704230293	0
bin	-107.61791096389	88
bin	120.86122037515	775
bin	349.34035171419	92
bin	577.81948305323	45
bin	806.29861439227	22
bin	1034.7777457313	14
bin	1263.2568770703	49
bin	1491.7360084094	4
bin	1720.2151397484	10
bin	1948.6942710875	4
bin	2177.1734024265	11
bin	2405.6525337655	4
bin	2634.1316651046	0
bin	2862.6107964436	2
bin	3091.0899277826	4
bin	3319.5690591217	3
bin	3548.0481904607	10
bin	3776.5273217998	0
bin	4005.0064531388	1
bin	4233.4855844778	0
bin	4461.9647158169	0
bin	4690.4438471559	3
bin	4918.922978495	0
bin	5147.402109834	481
scalar scenarioPRJP2.node[0].lo0.lo 	droppedPkBitError:count 	0
attr interpolationmode  none
attr source  dropPkBitError
attr title  "packets dropped/bit error, count"
scalar scenarioPRJP2.node[0].lo0.lo 	droppedPkBitError:sum(packetBytes) 	0
attr interpolationmode  none
attr source  dropPkBitError
attr title  "packets dropped/bit error, sum(packetBytes)"
scalar scenarioPRJP2.node[0].lo0.lo 	rcvdPkFromHL:count 	0
attr interpolationmode  none
attr source  packetReceivedFromUpper
attr title  "packets received from higher layer, count"
scalar scenarioPRJP2.node[0].lo0.lo 	rcvdPkFromHL:sum(packetBytes) 	0
attr interpolationmode  none
attr source  packetReceivedFromUpper
attr title  "packets received from higher layer, sum(packetBytes)"
scalar scenarioPRJP2.node[0].lo0.lo 	passedUpPk:count 	0
attr interpolationmode  none
attr source  packetSentToUpper
attr title  "packets passed to higher layer, count"
scalar scenarioPRJP2.node[0].lo0.lo 	passedUpPk:sum(packetBytes) 	0
attr interpolationmode  none
attr source  packetSentToUpper
attr title  "packets passed to higher layer, sum(packetBytes)"
scalar scenarioPRJP2.node[1].app 	"Total sent" 	544
scalar scenarioPRJP2.node[1].app 	"Total received" 	190
scalar scenarioPRJP2.node[1].app 	"Total deleted" 	0
scalar scenarioPRJP2.node[1].app 	dropPk:count 	0
attr interpolationmode  none
attr source  dropPk
attr title  "packets dropped, count"
scalar scenarioPRJP2.node[1].app 	dropPk:sum(packetBytes) 	0
attr interpolationmode  none
attr source  dropPk
attr title  "packets dropped, sum(packetBytes)"
scalar scenarioPRJP2.node[1].app 	outOfOrderPk:count 	0
attr interpolationmode  none
attr source  outOfOrderPk
attr title  "packets received out of order, count"
scalar scenarioPRJP2.node[1].app 	outOfOrderPk:sum(packetBytes) 	0
attr interpolationmode  none
attr source  outOfOrderPk
attr title  "packets received out of order, sum(packetBytes)"
scalar scenarioPRJP2.node[1].app 	rcvdPk:count 	190
attr interpolationmode  none
attr source  rcvdPk
attr title  "packets received, count"
scalar scenarioPRJP2.node[1].app 	rcvdPk:sum(packetBytes) 	97280
attr interpolationmode  none
attr source  rcvdPk
attr title  "packets received, sum(packetBytes)"
statistic scenarioPRJP2.node[1].app 	endToEndDelay:histogram
field count 190
field mean 10.07843669936
field stddev 11.648240749347
field sum 1914.9029728785
field sqrsum 44943.03427042
field min 0.001004682406
field max 35.023336635314
attr interpolationmode  none
attr source  messageAge(rcvdPk)
attr title  "delay, histogram"
attr unit  s
bin	-INF	0
bin	-17.510161294048	0
bin	-15.175339163854	0
bin	-12.84051703366	0
bin	-10.505694903466	0
bin	-8.1708727732725	0
bin	-5.8360506430787	0
bin	-3.5012285128848	0
bin	-1.1664063826909	85
bin	1.1684157475029	4
bin	3.5032378776968	9
bin	5.8380600078907	10
bin	8.1728821380845	7
bin	10.507704268278	8
bin	12.842526398472	7
bin	15.177348528666	6
bin	17.51217065886	6
bin	19.846992789054	8
bin	22.181814919248	7
bin	24.516637049442	7
bin	26.851459179635	7
bin	29.186281309829	7
bin	31.521103440023	6
bin	33.855925570217	6
bin	36.190747700411	0
bin	38.525569830605	0
bin	40.860391960799	0
bin	43.195214090993	0
bin	45.530036221186	0
bin	47.86485835138	0
bin	50.199680481574	0
bin	52.534502611768	0
scalar scenarioPRJP2.node[1].app 	sentPk:count 	544
attr interpolationmode  none
attr source  sentPk
attr title  "packets sent, count"
scalar scenarioPRJP2.node[1].app 	sentPk:sum(packetBytes) 	278528
attr interpolationmode  none
attr source  sentPk
attr title  "packets sent, sum(packetBytes)"
scalar scenarioPRJP2.node[1].udp 	droppedPkBadChecksum:count 	0
attr interpolationmode  none
attr title  "packets dropped (checksum error), count"
scalar scenarioPRJP2.node[1].udp 	droppedPkWrongPort:count 	0
attr interpolationmode  none
attr title  "packets dropped (wrong port), count"
scalar scenarioPRJP2.node[1].udp 	passedUpPk:count 	190
attr interpolationmode  none
attr title  "packets passed up, count"
scalar scenarioPRJP2.node[1].udp 	rcvdPk:count 	190
attr interpolationmode  none
attr source  rcvdPk
attr title  "packets received, count"
scalar scenarioPRJP2.node[1].udp 	rcvdPk:sum(packetBytes) 	98800
attr interpolationmode  none
attr source  rcvdPk
attr title  "packets received, sum(packetBytes)"
scalar scenarioPRJP2.node[1].udp 	sentPk:count 	544
attr interpolationmode  none
attr source  sentPk
attr title  "packets sent, count"
scalar scenarioPRJP2.node[1].udp 	sentPk:sum(packetBytes) 	282880
attr interpolationmode  none
attr source  sentPk
attr title  "packets sent, sum(packetBytes)"
scalar scenarioPRJP2.node[1].networkLayer.arp 	failedARPResolution:count 	0
attr title  "ARP failed resolutions, count"
scalar scenarioPRJP2.node[1].networkLayer.arp 	completedARPResolution:count 	13
attr title  "ARP completed resolutions, count"
scalar scenarioPRJP2.node[1].networkLayer.arp 	initiatedARPResolution:count 	3
attr title  "ARP initiated resolutions, count"
scalar scenarioPRJP2.node[1].networkLayer.arp 	sentReply:count 	6
attr title  "ARP replies sent, count"
scalar scenarioPRJP2.node[1].networkLayer.arp 	sentReq:count 	4
attr title  "ARP request sent, count"
scalar scenarioPRJP2.node[1].mobility 	startTime 	0.1
scalar scenarioPRJP2.node[1].mobility 	totalTime 	649.9
scalar scenarioPRJP2.node[1].mobility 	stopTime 	650
scalar scenarioPRJP2.node[1].mobility 	minSpeed 	5.8537641887667e-14
scalar scenarioPRJP2.node[1].mobility 	maxSpeed 	11.109971026396
scalar scenarioPRJP2.node[1].mobility 	totalDistance 	4384.2559776059
scalar scenarioPRJP2.node[1].mobility 	totalCO2Emission 	1291.9987878925
scalar scenarioPRJP2.node[1].wlan.mgmt 	dataQueueLen:max 	17
attr interpolationmode  sample-hold
attr title  "data queue length, max"
scalar scenarioPRJP2.node[1].wlan.mgmt 	dataQueueLen:timeavg 	0
attr interpolationmode  sample-hold
attr title  "data queue length, timeavg"
scalar scenarioPRJP2.node[1].wlan.mgmt 	dropPkByQueue:count 	0
attr interpolationmode  none
attr source  dropPkByQueue
attr title  "packets dropped by queue, count"
scalar scenarioPRJP2.node[1].wlan.mgmt 	dropPkByQueue:sum(packetBytes) 	0
attr interpolationmode  none
attr source  dropPkByQueue
attr title  "packets dropped by queue, sum(packetBytes)"
scalar scenarioPRJP2.node[1].wlan.mac 	"number of received packets" 	256
scalar scenarioPRJP2.node[1].wlan.mac 	"number of collisions" 	16
scalar scenarioPRJP2.node[1].wlan.mac 	"number of internal collisions" 	0
scalar scenarioPRJP2.node[1].wlan.mac 	"number of retry for AC 0" 	8
scalar scenarioPRJP2.node[1].wlan.mac 	"number of retry for AC 1" 	0
scalar scenarioPRJP2.node[1].wlan.mac 	"number of retry for AC 2" 	0
scalar scenarioPRJP2.node[1].wlan.mac 	"number of retry for AC 3" 	0
scalar scenarioPRJP2.node[1].wlan.mac 	"sent and received bits" 	986416
scalar scenarioPRJP2.node[1].wlan.mac 	"sent packet within AC 0" 	191
scalar scenarioPRJP2.node[1].wlan.mac 	"sent packet within AC 1" 	0
scalar scenarioPRJP2.node[1].wlan.mac 	"sent packet within AC 2" 	0
scalar scenarioPRJP2.node[1].wlan.mac 	"sent packet within AC 3" 	0
scalar scenarioPRJP2.node[1].wlan.mac 	"sent in TXOP " 	0
scalar scenarioPRJP2.node[1].wlan.mac 	"sentWithoutRetry AC 0" 	186
scalar scenarioPRJP2.node[1].wlan.mac 	"sentWithoutRetry AC 1" 	0
scalar scenarioPRJP2.node[1].wlan.mac 	"sentWithoutRetry AC 2" 	0
scalar scenarioPRJP2.node[1].wlan.mac 	"sentWithoutRetry AC 3" 	0
scalar scenarioPRJP2.node[1].wlan.mac 	"numGivenUp AC 0" 	0
scalar scenarioPRJP2.node[1].wlan.mac 	"numGivenUp AC 1" 	0
scalar scenarioPRJP2.node[1].wlan.mac 	"numGivenUp AC 2" 	0
scalar scenarioPRJP2.node[1].wlan.mac 	"numGivenUp AC 3" 	0
scalar scenarioPRJP2.node[1].wlan.mac 	"numDropped AC 0" 	0
scalar scenarioPRJP2.node[1].wlan.mac 	"numDropped AC 1" 	0
scalar scenarioPRJP2.node[1].wlan.mac 	"numDropped AC 2" 	0
scalar scenarioPRJP2.node[1].wlan.mac 	"numDropped AC 3" 	0
scalar scenarioPRJP2.node[1].wlan.mac 	rcvdPkFromLL:count 	1838
attr interpolationmode  none
attr source  packetReceivedFromLower
attr title  "packets received from lower layer, count"
scalar scenarioPRJP2.node[1].wlan.mac 	rcvdPkFromLL:sum(packetBytes) 	648974
attr interpolationmode  none
attr source  packetReceivedFromLower
attr title  "packets received from lower layer, sum(packetBytes)"
scalar scenarioPRJP2.node[1].wlan.mac 	sentDownPk:count 	626
attr interpolationmode  none
attr source  packetSentToLower
attr title  "packets sent to lower layer, count"
scalar scenarioPRJP2.node[1].wlan.mac 	sentDownPk:sum(packetBytes) 	131494
attr interpolationmode  none
attr source  packetSentToLower
attr title  "packets sent to lower layer, sum(packetBytes)"
scalar scenarioPRJP2.node[1].wlan.mac 	rcvdPkFromHL:count 	362
attr interpolationmode  none
attr source  packetReceivedFromUpper
attr title  "packets received from higher layer, count"
scalar scenarioPRJP2.node[1].wlan.mac 	rcvdPkFromHL:sum(packetBytes) 	123302
attr interpolationmode  none
attr source  packetReceivedFromUpper
attr title  "packets received from higher layer, sum(packetBytes)"
scalar scenarioPRJP2.node[1].wlan.mac 	passedUpPk:count 	573
attr interpolationmode  none
attr source  packetSentToUpper
attr title  "packets passed to higher layer, count"
scalar scenarioPRJP2.node[1].wlan.mac 	passedUpPk:sum(packetBytes) 	179987
attr interpolationmode  none
attr source  packetSentToUpper
attr title  "packets passed to higher layer, sum(packetBytes)"
statistic scenarioPRJP2.node[1].wlan.radio 	radioChannel:histogram
field count 1
field mean 3
field stddev -nan
field sum 3
field sqrsum 9
field min 3
field max 3
attr interpolationmode  sample-hold
attr source  radioChannelChanged
attr title  "Radio channel, histogram"
bin	-INF	0
bin	2	0
bin	3	1
bin	4	0
scalar scenarioPRJP2.node[1].wlan.radio 	transmissionState:count 	2504
attr interpolationmode  sample-hold
attr source  transmissionStateChanged
attr title  "Radio transmission state, count"
scalar scenarioPRJP2.node[1].wlan.radio 	receptionState:count 	4934
attr interpolationmode  sample-hold
attr source  receptionStateChanged
attr title  "Radio reception state, count"
scalar scenarioPRJP2.node[1].wlan.radio 	radioMode:count 	1254
attr interpolationmode  sample-hold
attr source  radioModeChanged
attr title  "Radio mode, count"
statistic scenarioPRJP2.node[1].wlan.radio 	symbolErrorRate:histogram
field count 0
field mean -nan
field stddev -nan
field sum 0
field sqrsum 0
field min -nan
field max -nan
attr source  symbolErrorRate
attr title  "Symbol error rate, histogram"
bin	-INF	0
bin	-0.5	0
bin	-0.46666666666667	0
bin	-0.43333333333333	0
bin	-0.4	0
bin	-0.36666666666667	0
bin	-0.33333333333333	0
bin	-0.3	0
bin	-0.26666666666667	0
bin	-0.23333333333333	0
bin	-0.2	0
bin	-0.16666666666667	0
bin	-0.13333333333333	0
bin	-0.1	0
bin	-0.066666666666667	0
bin	-0.033333333333333	0
bin	0	0
bin	0.033333333333333	0
bin	0.066666666666667	0
bin	0.1	0
bin	0.13333333333333	0
bin	0.16666666666667	0
bin	0.2	0
bin	0.23333333333333	0
bin	0.26666666666667	0
bin	0.3	0
bin	0.33333333333333	0
bin	0.36666666666667	0
bin	0.4	0
bin	0.43333333333333	0
bin	0.46666666666667	0
bin	0.5	0
statistic scenarioPRJP2.node[1].wlan.radio 	bitErrorRate:histogram
field count 0
field mean -nan
field stddev -nan
field sum 0
field sqrsum 0
field min -nan
field max -nan
attr source  bitErrorRate
attr title  "Bit error rate, histogram"
bin	-INF	0
bin	-0.5	0
bin	-0.46666666666667	0
bin	-0.43333333333333	0
bin	-0.4	0
bin	-0.36666666666667	0
bin	-0.33333333333333	0
bin	-0.3	0
bin	-0.26666666666667	0
bin	-0.23333333333333	0
bin	-0.2	0
bin	-0.16666666666667	0
bin	-0.13333333333333	0
bin	-0.1	0
bin	-0.066666666666667	0
bin	-0.033333333333333	0
bin	0	0
bin	0.033333333333333	0
bin	0.066666666666667	0
bin	0.1	0
bin	0.13333333333333	0
bin	0.16666666666667	0
bin	0.2	0
bin	0.23333333333333	0
bin	0.26666666666667	0
bin	0.3	0
bin	0.33333333333333	0
bin	0.36666666666667	0
bin	0.4	0
bin	0.43333333333333	0
bin	0.46666666666667	0
bin	0.5	0
statistic scenarioPRJP2.node[1].wlan.radio 	packetErrorRate:histogram
field count 1838
field mean 0.0084513030233099
field stddev 0.087282027684218
field sum 15.533494956844
field sqrsum 14.125824152091
field min 0
field max 1
attr source  packetErrorRate
attr title  "Packet error rate, histogram"
bin	-INF	0
bin	-0.5	0
bin	-0.46666666666667	0
bin	-0.43333333333333	0
bin	-0.4	0
bin	-0.36666666666667	0
bin	-0.33333333333333	0
bin	-0.3	0
bin	-0.26666666666667	0
bin	-0.23333333333333	0
bin	-0.2	0
bin	-0.16666666666667	0
bin	-0.13333333333333	0
bin	-0.1	0
bin	-0.066666666666667	0
bin	-0.033333333333333	0
bin	0	1814
bin	0.033333333333333	1
bin	0.066666666666667	0
bin	0.1	0
bin	0.13333333333333	7
bin	0.16666666666667	1
bin	0.2	0
bin	0.23333333333333	0
bin	0.26666666666667	0
bin	0.3	0
bin	0.33333333333333	0
bin	0.36666666666667	0
bin	0.4	1
bin	0.43333333333333	0
bin	0.46666666666667	0
bin	0.5	14
statistic scenarioPRJP2.node[1].wlan.radio 	minSNIR:histogram
field count 1838
field mean 72983.43762547
field stddev 203615.79719067
field sum 134143558.35561
field sqrsum 85951162718195
field min 0.2446504165465
field max 754972.9995201
attr source  minSNIR
attr title  "Min SNIR, histogram"
bin	-INF	0
bin	-1599.6474083984	0
bin	-1382.5664769845	0
bin	-1165.4855455706	0
bin	-948.40461415668	0
bin	-731.32368274276	0
bin	-514.24275132885	0
bin	-297.16181991493	0
bin	-80.080888501012	151
bin	137.0000429129	760
bin	354.08097432682	137
bin	571.16190574074	79
bin	788.24283715466	34
bin	1005.3237685686	13
bin	1222.4046999825	23
bin	1439.4856313964	8
bin	1656.5665628103	22
bin	1873.6474942242	4
bin	2090.7284256382	2
bin	2307.8093570521	8
bin	2524.890288466	13
bin	2741.9712198799	0
bin	2959.0521512938	2
bin	3176.1330827077	4
bin	3393.2140141217	1
bin	3610.2949455356	16
bin	3827.3758769495	2
bin	4044.4568083634	1
bin	4261.5377397773	0
bin	4478.6186711912	1
bin	4695.6996026052	2
bin	4912.7805340191	555
scalar scenarioPRJP2.node[1].lo0.lo 	droppedPkBitError:count 	0
attr interpolationmode  none
attr source  dropPkBitError
attr title  "packets dropped/bit error, count"
scalar scenarioPRJP2.node[1].lo0.lo 	droppedPkBitError:sum(packetBytes) 	0
attr interpolationmode  none
attr source  dropPkBitError
attr title  "packets dropped/bit error, sum(packetBytes)"
scalar scenarioPRJP2.node[1].lo0.lo 	rcvdPkFromHL:count 	0
attr interpolationmode  none
attr source  packetReceivedFromUpper
attr title  "packets received from higher layer, count"
scalar scenarioPRJP2.node[1].lo0.lo 	rcvdPkFromHL:sum(packetBytes) 	0
attr interpolationmode  none
attr source  packetReceivedFromUpper
attr title  "packets received from higher layer, sum(packetBytes)"
scalar scenarioPRJP2.node[1].lo0.lo 	passedUpPk:count 	0
attr interpolationmode  none
attr source  packetSentToUpper
attr title  "packets passed to higher layer, count"
scalar scenarioPRJP2.node[1].lo0.lo 	passedUpPk:sum(packetBytes) 	0
attr interpolationmode  none
attr source  packetSentToUpper
attr title  "packets passed to higher layer, sum(packetBytes)"
scalar scenarioPRJP2.node[2].app 	"Total sent" 	542
scalar scenarioPRJP2.node[2].app 	"Total received" 	19
scalar scenarioPRJP2.node[2].app 	"Total deleted" 	0
scalar scenarioPRJP2.node[2].app 	dropPk:count 	0
attr interpolationmode  none
attr source  dropPk
attr title  "packets dropped, count"
scalar scenarioPRJP2.node[2].app 	dropPk:sum(packetBytes) 	0
attr interpolationmode  none
attr source  dropPk
attr title  "packets dropped, sum(packetBytes)"
scalar scenarioPRJP2.node[2].app 	outOfOrderPk:count 	0
attr interpolationmode  none
attr source  outOfOrderPk
attr title  "packets received out of order, count"
scalar scenarioPRJP2.node[2].app 	outOfOrderPk:sum(packetBytes) 	0
attr interpolationmode  none
attr source  outOfOrderPk
attr title  "packets received out of order, sum(packetBytes)"
scalar scenarioPRJP2.node[2].app 	rcvdPk:count 	19
attr interpolationmode  none
attr source  rcvdPk
attr title  "packets received, count"
scalar scenarioPRJP2.node[2].app 	rcvdPk:sum(packetBytes) 	9728
attr interpolationmode  none
attr source  rcvdPk
attr title  "packets received, sum(packetBytes)"
statistic scenarioPRJP2.node[2].app 	endToEndDelay:histogram
field count 19
field mean 1.7731194375838
field stddev 2.5864433024567
field sum 33.689269314092
field sqrsum 180.14949948163
field min 0.002097208995
field max 7.55410777148
attr interpolationmode  none
attr source  messageAge(rcvdPk)
attr title  "delay, histogram"
attr unit  s
bin	-INF	0
bin	-3.7739080722475	0
bin	-3.2704407014152	0
bin	-2.7669733305828	0
bin	-2.2635059597505	0
bin	-1.7600385889182	0
bin	-1.2565712180858	0
bin	-0.7531038472535	0
bin	-0.24963647642117	11
bin	0.25383089441117	0
bin	0.7572982652435	1
bin	1.2607656360758	0
bin	1.7642330069082	1
bin	2.2677003777405	0
bin	2.7711677485728	1
bin	3.2746351194052	1
bin	3.7781024902375	0
bin	4.2815698610698	1
bin	4.7850372319022	0
bin	5.2885046027345	1
bin	5.7919719735668	0
bin	6.2954393443992	1
bin	6.7989067152315	0
bin	7.3023740860638	1
bin	7.8058414568962	0
bin	8.3093088277285	0
bin	8.8127761985608	0
bin	9.3162435693932	0
bin	9.8197109402255	0
bin	10.323178311058	0
bin	10.82664568189	0
bin	11.330113052722	0
scalar scenarioPRJP2.node[2].app 	sentPk:count 	542
attr interpolationmode  none
attr source  sentPk
attr title  "packets sent, count"
scalar scenarioPRJP2.node[2].app 	sentPk:sum(packetBytes) 	277504
attr interpolationmode  none
attr source  sentPk
attr title  "packets sent, sum(packetBytes)"
scalar scenarioPRJP2.node[2].udp 	droppedPkBadChecksum:count 	0
attr interpolationmode  none
attr title  "packets dropped (checksum error), count"
scalar scenarioPRJP2.node[2].udp 	droppedPkWrongPort:count 	0
attr interpolationmode  none
attr title  "packets dropped (wrong port), count"
scalar scenarioPRJP2.node[2].udp 	passedUpPk:count 	19
attr interpolationmode  none
attr title  "packets passed up, count"
scalar scenarioPRJP2.node[2].udp 	rcvdPk:count 	19
attr interpolationmode  none
attr source  rcvdPk
attr title  "packets received, count"
scalar scenarioPRJP2.node[2].udp 	rcvdPk:sum(packetBytes) 	9880
attr interpolationmode  none
attr source  rcvdPk
attr title  "packets received, sum(packetBytes)"
scalar scenarioPRJP2.node[2].udp 	sentPk:count 	542
attr interpolationmode  none
attr source  sentPk
attr title  "packets sent, count"
scalar scenarioPRJP2.node[2].udp 	sentPk:sum(packetBytes) 	281840
attr interpolationmode  none
attr source  sentPk
attr title  "packets sent, sum(packetBytes)"
scalar scenarioPRJP2.node[2].networkLayer.arp 	failedARPResolution:count 	0
attr title  "ARP failed resolutions, count"
scalar scenarioPRJP2.node[2].networkLayer.arp 	completedARPResolution:count 	5
attr title  "ARP completed resolutions, count"
scalar scenarioPRJP2.node[2].networkLayer.arp 	initiatedARPResolution:count 	2
attr title  "ARP initiated resolutions, count"
scalar scenarioPRJP2.node[2].networkLayer.arp 	sentReply:count 	1
attr title  "ARP replies sent, count"
scalar scenarioPRJP2.node[2].networkLayer.arp 	sentReq:count 	2
attr title  "ARP request sent, count"
scalar scenarioPRJP2.node[2].mobility 	startTime 	0.1
scalar scenarioPRJP2.node[2].mobility 	totalTime 	649.9
scalar scenarioPRJP2.node[2].mobility 	stopTime 	650
scalar scenarioPRJP2.node[2].mobility 	minSpeed 	5.8666141698902e-14
scalar scenarioPRJP2.node[2].mobility 	maxSpeed 	11.109940700764
scalar scenarioPRJP2.node[2].mobility 	totalDistance 	5746.8396521012
scalar scenarioPRJP2.node[2].mobility 	totalCO2Emission 	1452.5144699272
scalar scenarioPRJP2.node[2].wlan.mgmt 	dataQueueLen:max 	0
attr interpolationmode  sample-hold
attr title  "data queue length, max"
scalar scenarioPRJP2.node[2].wlan.mgmt 	dataQueueLen:timeavg 	0
attr interpolationmode  sample-hold
attr title  "data queue length, timeavg"
scalar scenarioPRJP2.node[2].wlan.mgmt 	dropPkByQueue:count 	0
attr interpolationmode  none
attr source  dropPkByQueue
attr title  "packets dropped by queue, count"
scalar scenarioPRJP2.node[2].wlan.mgmt 	dropPkByQueue:sum(packetBytes) 	0
attr interpolationmode  none
attr source  dropPkByQueue
attr title  "packets dropped by queue, sum(packetBytes)"
scalar scenarioPRJP2.node[2].wlan.mac 	"number of received packets" 	22
scalar scenarioPRJP2.node[2].wlan.mac 	"number of collisions" 	14
scalar scenarioPRJP2.node[2].wlan.mac 	"number of internal collisions" 	0
scalar scenarioPRJP2.node[2].wlan.mac 	"number of retry for AC 0" 	3
scalar scenarioPRJP2.node[2].wlan.mac 	"number of retry for AC 1" 	0
scalar scenarioPRJP2.node[2].wlan.mac 	"number of retry for AC 2" 	0
scalar scenarioPRJP2.node[2].wlan.mac 	"number of retry for AC 3" 	0
scalar scenarioPRJP2.node[2].wlan.mac 	"sent and received bits" 	358376
scalar scenarioPRJP2.node[2].wlan.mac 	"sent packet within AC 0" 	63
scalar scenarioPRJP2.node[2].wlan.mac 	"sent packet within AC 1" 	0
scalar scenarioPRJP2.node[2].wlan.mac 	"sent packet within AC 2" 	0
scalar scenarioPRJP2.node[2].wlan.mac 	"sent packet within AC 3" 	0
scalar scenarioPRJP2.node[2].wlan.mac 	"sent in TXOP " 	0
scalar scenarioPRJP2.node[2].wlan.mac 	"sentWithoutRetry AC 0" 	61
scalar scenarioPRJP2.node[2].wlan.mac 	"sentWithoutRetry AC 1" 	0
scalar scenarioPRJP2.node[2].wlan.mac 	"sentWithoutRetry AC 2" 	0
scalar scenarioPRJP2.node[2].wlan.mac 	"sentWithoutRetry AC 3" 	0
scalar scenarioPRJP2.node[2].wlan.mac 	"numGivenUp AC 0" 	0
scalar scenarioPRJP2.node[2].wlan.mac 	"numGivenUp AC 1" 	0
scalar scenarioPRJP2.node[2].wlan.mac 	"numGivenUp AC 2" 	0
scalar scenarioPRJP2.node[2].wlan.mac 	"numGivenUp AC 3" 	0
scalar scenarioPRJP2.node[2].wlan.mac 	"numDropped AC 0" 	0
scalar scenarioPRJP2.node[2].wlan.mac 	"numDropped AC 1" 	0
scalar scenarioPRJP2.node[2].wlan.mac 	"numDropped AC 2" 	0
scalar scenarioPRJP2.node[2].wlan.mac 	"numDropped AC 3" 	0
scalar scenarioPRJP2.node[2].wlan.mac 	rcvdPkFromLL:count 	705
attr interpolationmode  none
attr source  packetReceivedFromLower
attr title  "packets received from lower layer, count"
scalar scenarioPRJP2.node[2].wlan.mac 	rcvdPkFromLL:sum(packetBytes) 	218074
attr interpolationmode  none
attr source  packetReceivedFromLower
attr title  "packets received from lower layer, sum(packetBytes)"
scalar scenarioPRJP2.node[2].wlan.mac 	sentDownPk:count 	186
attr interpolationmode  none
attr source  packetSentToLower
attr title  "packets sent to lower layer, count"
scalar scenarioPRJP2.node[2].wlan.mac 	sentDownPk:sum(packetBytes) 	46833
attr interpolationmode  none
attr source  packetSentToLower
attr title  "packets sent to lower layer, sum(packetBytes)"
scalar scenarioPRJP2.node[2].wlan.mac 	rcvdPkFromHL:count 	161
attr interpolationmode  none
attr source  packetReceivedFromUpper
attr title  "packets received from higher layer, count"
scalar scenarioPRJP2.node[2].wlan.mac 	rcvdPkFromHL:sum(packetBytes) 	44797
attr interpolationmode  none
attr source  packetReceivedFromUpper
attr title  "packets received from higher layer, sum(packetBytes)"
scalar scenarioPRJP2.node[2].wlan.mac 	passedUpPk:count 	98
attr interpolationmode  none
attr source  packetSentToUpper
attr title  "packets passed to higher layer, count"
scalar scenarioPRJP2.node[2].wlan.mac 	passedUpPk:sum(packetBytes) 	19637
attr interpolationmode  none
attr source  packetSentToUpper
attr title  "packets passed to higher layer, sum(packetBytes)"
statistic scenarioPRJP2.node[2].wlan.radio 	radioChannel:histogram
field count 1
field mean 3
field stddev -nan
field sum 3
field sqrsum 9
field min 3
field max 3
attr interpolationmode  sample-hold
attr source  radioChannelChanged
attr title  "Radio channel, histogram"
bin	-INF	0
bin	2	0
bin	3	1
bin	4	0
scalar scenarioPRJP2.node[2].wlan.radio 	transmissionState:count 	744
attr interpolationmode  sample-hold
attr source  transmissionStateChanged
attr title  "Radio transmission state, count"
scalar scenarioPRJP2.node[2].wlan.radio 	receptionState:count 	1786
attr interpolationmode  sample-hold
attr source  receptionStateChanged
attr title  "Radio reception state, count"
scalar scenarioPRJP2.node[2].wlan.radio 	radioMode:count 	374
attr interpolationmode  sample-hold
attr source  radioModeChanged
attr title  "Radio mode, count"
statistic scenarioPRJP2.node[2].wlan.radio 	symbolErrorRate:histogram
field count 0
field mean -nan
field stddev -nan
field sum 0
field sqrsum 0
field min -nan
field max -nan
attr source  symbolErrorRate
attr title  "Symbol error rate, histogram"
bin	-INF	0
bin	-0.5	0
bin	-0.46666666666667	0
bin	-0.43333333333333	0
bin	-0.4	0
bin	-0.36666666666667	0
bin	-0.33333333333333	0
bin	-0.3	0
bin	-0.26666666666667	0
bin	-0.23333333333333	0
bin	-0.2	0
bin	-0.16666666666667	0
bin	-0.13333333333333	0
bin	-0.1	0
bin	-0.066666666666667	0
bin	-0.033333333333333	0
bin	0	0
bin	0.033333333333333	0
bin	0.066666666666667	0
bin	0.1	0
bin	0.13333333333333	0
bin	0.16666666666667	0
bin	0.2	0
bin	0.23333333333333	0
bin	0.26666666666667	0
bin	0.3	0
bin	0.33333333333333	0
bin	0.36666666666667	0
bin	0.4	0
bin	0.43333333333333	0
bin	0.46666666666667	0
bin	0.5	0
statistic scenarioPRJP2.node[2].wlan.radio 	bitErrorRate:histogram
field count 0
field mean -nan
field stddev -nan
field sum 0
field sqrsum 0
field min -nan
field max -nan
attr source  bitErrorRate
attr title  "Bit error rate, histogram"
bin	-INF	0
bin	-0.5	0
bin	-0.46666666666667	0
bin	-0.43333333333333	0
bin	-0.4	0
bin	-0.36666666666667	0
bin	-0.33333333333333	0
bin	-0.3	0
bin	-0.26666666666667	0
bin	-0.23333333333333	0
bin	-0.2	0
bin	-0.16666666666667	0
bin	-0.13333333333333	0
bin	-0.1	0
bin	-0.066666666666667	0
bin	-0.033333333333333	0
bin	0	0
bin	0.033333333333333	0
bin	0.066666666666667	0
bin	0.1	0
bin	0.13333333333333	0
bin	0.16666666666667	0
bin	0.2	0
bin	0.23333333333333	0
bin	0.26666666666667	0
bin	0.3	0
bin	0.33333333333333	0
bin	0.36666666666667	0
bin	0.4	0
bin	0.43333333333333	0
bin	0.46666666666667	0
bin	0.5	0
statistic scenarioPRJP2.node[2].wlan.radio 	packetErrorRate:histogram
field count 705
field mean 0.022023165628597
field stddev 0.14329960434842
field sum 15.526331768161
field sqrsum 14.798421707051
field min 0
field max 1
attr source  packetErrorRate
attr title  "Packet error rate, histogram"
bin	-INF	0
bin	-0.17735760085369	0
bin	-0.15370992073986	0
bin	-0.13006224062604	0
bin	-0.10641456051221	0
bin	-0.082766880398387	0
bin	-0.059119200284562	0
bin	-0.035471520170737	0
bin	-0.011823840056912	688
bin	0.011823840056912	0
bin	0.035471520170737	0
bin	0.059119200284562	0
bin	0.082766880398387	0
bin	0.10641456051221	0
bin	0.13006224062604	0
bin	0.15370992073986	0
bin	0.17735760085369	0
bin	0.20100528096751	0
bin	0.22465296108134	0
bin	0.24830064119516	0
bin	0.27194832130899	0
bin	0.29559600142281	0
bin	0.31924368153664	0
bin	0.34289136165046	1
bin	0.36653904176429	0
bin	0.39018672187811	0
bin	0.41383440199193	0
bin	0.43748208210576	1
bin	0.46112976221958	0
bin	0.48477744233341	0
bin	0.50842512244723	0
bin	0.53207280256106	15
statistic scenarioPRJP2.node[2].wlan.radio 	minSNIR:histogram
field count 705
field mean 619.08157686725
field stddev 4996.4341545212
field sum 436452.51169141
field sqrsum 17845105108.534
field min 0.4101661477718
field max 130855.55618579
attr source  minSNIR
attr title  "Min SNIR, histogram"
bin	-INF	0
bin	-150.25891569127	0
bin	-129.72128691441	0
bin	-109.18365813755	0
bin	-88.646029360692	0
bin	-68.108400583835	0
bin	-47.570771806977	0
bin	-27.033143030119	0
bin	-6.4955142532615	34
bin	14.042114523596	2
bin	34.579743300454	0
bin	55.117372077312	0
bin	75.655000854169	1
bin	96.192629631027	0
bin	116.73025840788	56
bin	137.26788718474	76
bin	157.8055159616	24
bin	178.34314473846	25
bin	198.88077351532	67
bin	219.41840229217	16
bin	239.95603106903	18
bin	260.49365984589	7
bin	281.03128862275	25
bin	301.5689173996	29
bin	322.10654617646	6
bin	342.64417495332	28
bin	363.18180373018	7
bin	383.71943250704	59
bin	404.25706128389	35
bin	424.79469006075	14
bin	445.33231883761	21
bin	465.86994761447	155
scalar scenarioPRJP2.node[2].lo0.lo 	droppedPkBitError:count 	0
attr interpolationmode  none
attr source  dropPkBitError
attr title  "packets dropped/bit error, count"
scalar scenarioPRJP2.node[2].lo0.lo 	droppedPkBitError:sum(packetBytes) 	0
attr interpolationmode  none
attr source  dropPkBitError
attr title  "packets dropped/bit error, sum(packetBytes)"
scalar scenarioPRJP2.node[2].lo0.lo 	rcvdPkFromHL:count 	0
attr interpolationmode  none
attr source  packetReceivedFromUpper
attr title  "packets received from higher layer, count"
scalar scenarioPRJP2.node[2].lo0.lo 	rcvdPkFromHL:sum(packetBytes) 	0
attr interpolationmode  none
attr source  packetReceivedFromUpper
attr title  "packets received from higher layer, sum(packetBytes)"
scalar scenarioPRJP2.node[2].lo0.lo 	passedUpPk:count 	0
attr interpolationmode  none
attr source  packetSentToUpper
attr title  "packets passed to higher layer, count"
scalar scenarioPRJP2.node[2].lo0.lo 	passedUpPk:sum(packetBytes) 	0
attr interpolationmode  none
attr source  packetSentToUpper
attr title  "packets passed to higher layer, sum(packetBytes)"
scalar scenarioPRJP2.node[3].app 	"Total sent" 	549
scalar scenarioPRJP2.node[3].app 	"Total received" 	125
scalar scenarioPRJP2.node[3].app 	"Total deleted" 	0
scalar scenarioPRJP2.node[3].app 	dropPk:count 	0
attr interpolationmode  none
attr source  dropPk
attr title  "packets dropped, count"
scalar scenarioPRJP2.node[3].app 	dropPk:sum(packetBytes) 	0
attr interpolationmode  none
attr source  dropPk
attr title  "packets dropped, sum(packetBytes)"
scalar scenarioPRJP2.node[3].app 	outOfOrderPk:count 	0
attr interpolationmode  none
attr source  outOfOrderPk
attr title  "packets received out of order, count"
scalar scenarioPRJP2.node[3].app 	outOfOrderPk:sum(packetBytes) 	0
attr interpolationmode  none
attr source  outOfOrderPk
attr title  "packets received out of order, sum(packetBytes)"
scalar scenarioPRJP2.node[3].app 	rcvdPk:count 	125
attr interpolationmode  none
attr source  rcvdPk
attr title  "packets received, count"
scalar scenarioPRJP2.node[3].app 	rcvdPk:sum(packetBytes) 	64000
attr interpolationmode  none
attr source  rcvdPk
attr title  "packets received, sum(packetBytes)"
statistic scenarioPRJP2.node[3].app 	endToEndDelay:histogram
field count 125
field mean 0.36327470203447
field stddev 1.2301226779713
field sum 45.409337754309
field sqrsum 204.13308719684
field min 0.000972153218
field max 7.519649026925
attr interpolationmode  none
attr source  messageAge(rcvdPk)
attr title  "delay, histogram"
attr unit  s
bin	-INF	0
bin	-1.752487916828	0
bin	-1.5186932408219	0
bin	-1.2848985648157	0
bin	-1.0511038888096	0
bin	-0.81730921280347	0
bin	-0.58351453679733	0
bin	-0.3497198607912	0
bin	-0.11592518478507	110
bin	0.11786949122107	0
bin	0.3516641672272	2
bin	0.58545884323333	1
bin	0.81925351923947	0
bin	1.0530481952456	0
bin	1.2868428712517	3
bin	1.5206375472579	0
bin	1.754432223264	0
bin	1.9882268992701	0
bin	2.2220215752763	0
bin	2.4558162512824	3
bin	2.6896109272885	0
bin	2.9234056032947	0
bin	3.1572002793008	0
bin	3.3909949553069	2
bin	3.6247896313131	0
bin	3.8585843073192	0
bin	4.0923789833253	0
bin	4.3261736593315	0
bin	4.5599683353376	1
bin	4.7937630113437	0
bin	5.0275576873499	0
bin	5.261352363356	3
scalar scenarioPRJP2.node[3].app 	sentPk:count 	549
attr interpolationmode  none
attr source  sentPk
attr title  "packets sent, count"
scalar scenarioPRJP2.node[3].app 	sentPk:sum(packetBytes) 	281088
attr interpolationmode  none
attr source  sentPk
attr title  "packets sent, sum(packetBytes)"
scalar scenarioPRJP2.node[3].udp 	droppedPkBadChecksum:count 	0
attr interpolationmode  none
attr title  "packets dropped (checksum error), count"
scalar scenarioPRJP2.node[3].udp 	droppedPkWrongPort:count 	0
attr interpolationmode  none
attr title  "packets dropped (wrong port), count"
scalar scenarioPRJP2.node[3].udp 	passedUpPk:count 	125
attr interpolationmode  none
attr title  "packets passed up, count"
scalar scenarioPRJP2.node[3].udp 	rcvdPk:count 	125
attr interpolationmode  none
attr source  rcvdPk
attr title  "packets received, count"
scalar scenarioPRJP2.node[3].udp 	rcvdPk:sum(packetBytes) 	65000
attr interpolationmode  none
attr source  rcvdPk
attr title  "packets received, sum(packetBytes)"
scalar scenarioPRJP2.node[3].udp 	sentPk:count 	549
attr interpolationmode  none
attr source  sentPk
attr title  "packets sent, count"
scalar scenarioPRJP2.node[3].udp 	sentPk:sum(packetBytes) 	285480
attr interpolationmode  none
attr source  sentPk
attr title  "packets sent, sum(packetBytes)"
scalar scenarioPRJP2.node[3].networkLayer.arp 	failedARPResolution:count 	0
attr title  "ARP failed resolutions, count"
scalar scenarioPRJP2.node[3].networkLayer.arp 	completedARPResolution:count 	10
attr title  "ARP completed resolutions, count"
scalar scenarioPRJP2.node[3].networkLayer.arp 	initiatedARPResolution:count 	4
attr title  "ARP initiated resolutions, count"
scalar scenarioPRJP2.node[3].networkLayer.arp 	sentReply:count 	5
attr title  "ARP replies sent, count"
scalar scenarioPRJP2.node[3].networkLayer.arp 	sentReq:count 	4
attr title  "ARP request sent, count"
scalar scenarioPRJP2.node[3].mobility 	startTime 	0.1
scalar scenarioPRJP2.node[3].mobility 	totalTime 	649.9
scalar scenarioPRJP2.node[3].mobility 	stopTime 	650
scalar scenarioPRJP2.node[3].mobility 	minSpeed 	1.1257031838118e-13
scalar scenarioPRJP2.node[3].mobility 	maxSpeed 	11.109952279651
scalar scenarioPRJP2.node[3].mobility 	totalDistance 	6291.7797905595
scalar scenarioPRJP2.node[3].mobility 	totalCO2Emission 	1447.952486996
scalar scenarioPRJP2.node[3].wlan.mgmt 	dataQueueLen:max 	0
attr interpolationmode  sample-hold
attr title  "data queue length, max"
scalar scenarioPRJP2.node[3].wlan.mgmt 	dataQueueLen:timeavg 	0
attr interpolationmode  sample-hold
attr title  "data queue length, timeavg"
scalar scenarioPRJP2.node[3].wlan.mgmt 	dropPkByQueue:count 	0
attr interpolationmode  none
attr source  dropPkByQueue
attr title  "packets dropped by queue, count"
scalar scenarioPRJP2.node[3].wlan.mgmt 	dropPkByQueue:sum(packetBytes) 	0
attr interpolationmode  none
attr source  dropPkByQueue
attr title  "packets dropped by queue, sum(packetBytes)"
scalar scenarioPRJP2.node[3].wlan.mac 	"number of received packets" 	181
scalar scenarioPRJP2.node[3].wlan.mac 	"number of collisions" 	13
scalar scenarioPRJP2.node[3].wlan.mac 	"number of internal collisions" 	0
scalar scenarioPRJP2.node[3].wlan.mac 	"number of retry for AC 0" 	159
scalar scenarioPRJP2.node[3].wlan.mac 	"number of retry for AC 1" 	0
scalar scenarioPRJP2.node[3].wlan.mac 	"number of retry for AC 2" 	0
scalar scenarioPRJP2.node[3].wlan.mac 	"number of retry for AC 3" 	0
scalar scenarioPRJP2.node[3].wlan.mac 	"sent and received bits" 	625512
scalar scenarioPRJP2.node[3].wlan.mac 	"sent packet within AC 0" 	127
scalar scenarioPRJP2.node[3].wlan.mac 	"sent packet within AC 1" 	0
scalar scenarioPRJP2.node[3].wlan.mac 	"sent packet within AC 2" 	0
scalar scenarioPRJP2.node[3].wlan.mac 	"sent packet within AC 3" 	0
scalar scenarioPRJP2.node[3].wlan.mac 	"sent in TXOP " 	0
scalar scenarioPRJP2.node[3].wlan.mac 	"sentWithoutRetry AC 0" 	125
scalar scenarioPRJP2.node[3].wlan.mac 	"sentWithoutRetry AC 1" 	0
scalar scenarioPRJP2.node[3].wlan.mac 	"sentWithoutRetry AC 2" 	0
scalar scenarioPRJP2.node[3].wlan.mac 	"sentWithoutRetry AC 3" 	0
scalar scenarioPRJP2.node[3].wlan.mac 	"numGivenUp AC 0" 	26
scalar scenarioPRJP2.node[3].wlan.mac 	"numGivenUp AC 1" 	0
scalar scenarioPRJP2.node[3].wlan.mac 	"numGivenUp AC 2" 	0
scalar scenarioPRJP2.node[3].wlan.mac 	"numGivenUp AC 3" 	0
scalar scenarioPRJP2.node[3].wlan.mac 	"numDropped AC 0" 	0
scalar scenarioPRJP2.node[3].wlan.mac 	"numDropped AC 1" 	0
scalar scenarioPRJP2.node[3].wlan.mac 	"numDropped AC 2" 	0
scalar scenarioPRJP2.node[3].wlan.mac 	"numDropped AC 3" 	0
scalar scenarioPRJP2.node[3].wlan.mac 	rcvdPkFromLL:count 	500
attr interpolationmode  none
attr source  packetReceivedFromLower
attr title  "packets received from lower layer, count"
scalar scenarioPRJP2.node[3].wlan.mac 	rcvdPkFromLL:sum(packetBytes) 	130276
attr interpolationmode  none
attr source  packetReceivedFromLower
attr title  "packets received from lower layer, sum(packetBytes)"
scalar scenarioPRJP2.node[3].wlan.mac 	sentDownPk:count 	597
attr interpolationmode  none
attr source  packetSentToLower
attr title  "packets sent to lower layer, count"
scalar scenarioPRJP2.node[3].wlan.mac 	sentDownPk:sum(packetBytes) 	185793
attr interpolationmode  none
attr source  packetSentToLower
attr title  "packets sent to lower layer, sum(packetBytes)"
scalar scenarioPRJP2.node[3].wlan.mac 	rcvdPkFromHL:count 	257
attr interpolationmode  none
attr source  packetReceivedFromUpper
attr title  "packets received from higher layer, count"
scalar scenarioPRJP2.node[3].wlan.mac 	rcvdPkFromHL:sum(packetBytes) 	93165
attr interpolationmode  none
attr source  packetReceivedFromUpper
attr title  "packets received from higher layer, sum(packetBytes)"
scalar scenarioPRJP2.node[3].wlan.mac 	passedUpPk:count 	280
attr interpolationmode  none
attr source  packetSentToUpper
attr title  "packets passed to higher layer, count"
scalar scenarioPRJP2.node[3].wlan.mac 	passedUpPk:sum(packetBytes) 	111778
attr interpolationmode  none
attr source  packetSentToUpper
attr title  "packets passed to higher layer, sum(packetBytes)"
statistic scenarioPRJP2.node[3].wlan.radio 	radioChannel:histogram
field count 1
field mean 3
field stddev -nan
field sum 3
field sqrsum 9
field min 3
field max 3
attr interpolationmode  sample-hold
attr source  radioChannelChanged
attr title  "Radio channel, histogram"
bin	-INF	0
bin	2	0
bin	3	1
bin	4	0
scalar scenarioPRJP2.node[3].wlan.radio 	transmissionState:count 	2388
attr interpolationmode  sample-hold
attr source  transmissionStateChanged
attr title  "Radio transmission state, count"
scalar scenarioPRJP2.node[3].wlan.radio 	receptionState:count 	2198
attr interpolationmode  sample-hold
attr source  receptionStateChanged
attr title  "Radio reception state, count"
scalar scenarioPRJP2.node[3].wlan.radio 	radioMode:count 	1196
attr interpolationmode  sample-hold
attr source  radioModeChanged
attr title  "Radio mode, count"
statistic scenarioPRJP2.node[3].wlan.radio 	symbolErrorRate:histogram
field count 0
field mean -nan
field stddev -nan
field sum 0
field sqrsum 0
field min -nan
field max -nan
attr source  symbolErrorRate
attr title  "Symbol error rate, histogram"
bin	-INF	0
bin	-0.5	0
bin	-0.46666666666667	0
bin	-0.43333333333333	0
bin	-0.4	0
bin	-0.36666666666667	0
bin	-0.33333333333333	0
bin	-0.3	0
bin	-0.26666666666667	0
bin	-0.23333333333333	0
bin	-0.2	0
bin	-0.16666666666667	0
bin	-0.13333333333333	0
bin	-0.1	0
bin	-0.066666666666667	0
bin	-0.033333333333333	0
bin	0	0
bin	0.033333333333333	0
bin	0.066666666666667	0
bin	0.1	0
bin	0.13333333333333	0
bin	0.16666666666667	0
bin	0.2	0
bin	0.23333333333333	0
bin	0.26666666666667	0
bin	0.3	0
bin	0.33333333333333	0
bin	0.36666666666667	0
bin	0.4	0
bin	0.43333333333333	0
bin	0.46666666666667	0
bin	0.5	0
statistic scenarioPRJP2.node[3].wlan.radio 	bitErrorRate:histogram
field count 0
field mean -nan
field stddev -nan
field sum 0
field sqrsum 0
field min -nan
field max -nan
attr source  bitErrorRate
attr title  "Bit error rate, histogram"
bin	-INF	0
bin	-0.5	0
bin	-0.46666666666667	0
bin	-0.43333333333333	0
bin	-0.4	0
bin	-0.36666666666667	0
bin	-0.33333333333333	0
bin	-0.3	0
bin	-0.26666666666667	0
bin	-0.23333333333333	0
bin	-0.2	0
bin	-0.16666666666667	0
bin	-0.13333333333333	0
bin	-0.1	0
bin	-0.066666666666667	0
bin	-0.033333333333333	0
bin	0	0
bin	0.033333333333333	0
bin	0.066666666666667	0
bin	0.1	0
bin	0.13333333333333	0
bin	0.16666666666667	0
bin	0.2	0
bin	0.23333333333333	0
bin	0.26666666666667	0
bin	0.3	0
bin	0.33333333333333	0
bin	0.36666666666667	0
bin	0.4	0
bin	0.43333333333333	0
bin	0.46666666666667	0
bin	0.5	0
statistic scenarioPRJP2.node[3].wlan.radio 	packetErrorRate:histogram
field count 500
field mean 0.020750878051289
field stddev 0.14047090287064
field sum 10.375439025644
field sqrsum 10.061604672043
field min 0
field max 1
attr source  packetErrorRate
attr title  "Packet error rate, histogram"
bin	-INF	0
bin	-0.5	0
bin	-0.43333333333333	0
bin	-0.36666666666667	0
bin	-0.3	0
bin	-0.23333333333333	0
bin	-0.16666666666667	0
bin	-0.1	0
bin	-0.033333333333333	488
bin	0.033333333333333	0
bin	0.1	1
bin	0.16666666666667	1
bin	0.23333333333333	0
bin	0.3	0
bin	0.36666666666667	0
bin	0.43333333333333	0
bin	0.5	0
bin	0.56666666666667	0
bin	0.63333333333333	0
bin	0.7	0
bin	0.76666666666667	0
bin	0.83333333333333	0
bin	0.9	0
bin	0.96666666666667	10
bin	1.0333333333333	0
bin	1.1	0
bin	1.1666666666667	0
bin	1.2333333333333	0
bin	1.3	0
bin	1.3666666666667	0
bin	1.4333333333333	0
bin	1.5	0
statistic scenarioPRJP2.node[3].wlan.radio 	minSNIR:histogram
field count 500
field mean 533.19014782883
field stddev 661.56080986556
field sum 266595.07391442
field sqrsum 360539556.74071
field min 0.31245923941547
field max 4425.2534121486
attr source  minSNIR
attr title  "Min SNIR, histogram"
bin	-INF	0
bin	-1624.2524488359	0
bin	-1407.5542243316	0
bin	-1190.8559998272	0
bin	-974.15777532286	0
bin	-757.45955081851	0
bin	-540.76132631416	0
bin	-324.06310180981	0
bin	-107.36487730545	46
bin	109.3333471989	201
bin	326.03157170325	137
bin	542.7297962076	34
bin	759.42802071195	12
bin	976.12624521631	22
bin	1192.8244697207	7
bin	1409.522694225	4
bin	1626.2209187294	7
bin	1842.9191432337	6
bin	2059.6173677381	2
bin	2276.3155922424	6
bin	2493.0138167468	3
bin	2709.7120412511	3
bin	2926.4102657555	4
bin	3143.1084902598	2
bin	3359.8067147642	0
bin	3576.5049392685	1
bin	3793.2031637729	1
bin	4009.9013882772	1
bin	4226.5996127816	1
bin	4443.2978372859	0
bin	4659.9960617903	0
bin	4876.6942862946	0
scalar scenarioPRJP2.node[3].lo0.lo 	droppedPkBitError:count 	0
attr interpolationmode  none
attr source  dropPkBitError
attr title  "packets dropped/bit error, count"
scalar scenarioPRJP2.node[3].lo0.lo 	droppedPkBitError:sum(packetBytes) 	0
attr interpolationmode  none
attr source  dropPkBitError
attr title  "packets dropped/bit error, sum(packetBytes)"
scalar scenarioPRJP2.node[3].lo0.lo 	rcvdPkFromHL:count 	0
attr interpolationmode  none
attr source  packetReceivedFromUpper
attr title  "packets received from higher layer, count"
scalar scenarioPRJP2.node[3].lo0.lo 	rcvdPkFromHL:sum(packetBytes) 	0
attr interpolationmode  none
attr source  packetReceivedFromUpper
attr title  "packets received from higher layer, sum(packetBytes)"
scalar scenarioPRJP2.node[3].lo0.lo 	passedUpPk:count 	0
attr interpolationmode  none
attr source  packetSentToUpper
attr title  "packets passed to higher layer, count"
scalar scenarioPRJP2.node[3].lo0.lo 	passedUpPk:sum(packetBytes) 	0
attr interpolationmode  none
attr source  packetSentToUpper
attr title  "packets passed to higher layer, sum(packetBytes)"
scalar scenarioPRJP2.node[4].app 	"Total sent" 	541
scalar scenarioPRJP2.node[4].app 	"Total received" 	141
scalar scenarioPRJP2.node[4].app 	"Total deleted" 	0
scalar scenarioPRJP2.node[4].app 	dropPk:count 	0
attr interpolationmode  none
attr source  dropPk
attr title  "packets dropped, count"
scalar scenarioPRJP2.node[4].app 	dropPk:sum(packetBytes) 	0
attr interpolationmode  none
attr source  dropPk
attr title  "packets dropped, sum(packetBytes)"
scalar scenarioPRJP2.node[4].app 	outOfOrderPk:count 	0
attr interpolationmode  none
attr source  outOfOrderPk
attr title  "packets received out of order, count"
scalar scenarioPRJP2.node[4].app 	outOfOrderPk:sum(packetBytes) 	0
attr interpolationmode  none
attr source  outOfOrderPk
attr title  "packets received out of order, sum(packetBytes)"
scalar scenarioPRJP2.node[4].app 	rcvdPk:count 	141
attr interpolationmode  none
attr source  rcvdPk
attr title  "packets received, count"
scalar scenarioPRJP2.node[4].app 	rcvdPk:sum(packetBytes) 	72192
attr interpolationmode  none
attr source  rcvdPk
attr title  "packets received, sum(packetBytes)"
statistic scenarioPRJP2.node[4].app 	endToEndDelay:histogram
field count 141
field mean 4.5131673945418
field stddev 9.4229904800051
field sum 636.3566026304
field sqrsum 15302.96881237
field min 0.000972736387
field max 35.012867826373
attr interpolationmode  none
attr source  messageAge(rcvdPk)
attr title  "delay, histogram"
attr unit  s
bin	-INF	0
bin	-17.504951404537	0
bin	-15.170826105385	0
bin	-12.836700806233	0
bin	-10.502575507082	0
bin	-8.1684502079304	0
bin	-5.8343249087788	0
bin	-3.5001996096273	0
bin	-1.1660743104758	108
bin	1.1680509886758	2
bin	3.5021762878273	1
bin	5.8363015869788	2
bin	8.1704268861304	3
bin	10.504552185282	2
bin	12.838677484433	2
bin	15.172802783585	3
bin	17.506928082736	2
bin	19.841053381888	2
bin	22.17517868104	3
bin	24.509303980191	2
bin	26.843429279343	2
bin	29.177554578494	3
bin	31.511679877646	2
bin	33.845805176797	2
bin	36.179930475949	0
bin	38.5140557751	0
bin	40.848181074252	0
bin	43.182306373403	0
bin	45.516431672555	0
bin	47.850556971706	0
bin	50.184682270858	0
bin	52.518807570009	0
scalar scenarioPRJP2.node[4].app 	sentPk:count 	541
attr interpolationmode  none
attr source  sentPk
attr title  "packets sent, count"
scalar scenarioPRJP2.node[4].app 	sentPk:sum(packetBytes) 	276992
attr interpolationmode  none
attr source  sentPk
attr title  "packets sent, sum(packetBytes)"
scalar scenarioPRJP2.node[4].udp 	droppedPkBadChecksum:count 	0
attr interpolationmode  none
attr title  "packets dropped (checksum error), count"
scalar scenarioPRJP2.node[4].udp 	droppedPkWrongPort:count 	0
attr interpolationmode  none
attr title  "packets dropped (wrong port), count"
scalar scenarioPRJP2.node[4].udp 	passedUpPk:count 	141
attr interpolationmode  none
attr title  "packets passed up, count"
scalar scenarioPRJP2.node[4].udp 	rcvdPk:count 	141
attr interpolationmode  none
attr source  rcvdPk
attr title  "packets received, count"
scalar scenarioPRJP2.node[4].udp 	rcvdPk:sum(packetBytes) 	73320
attr interpolationmode  none
attr source  rcvdPk
attr title  "packets received, sum(packetBytes)"
scalar scenarioPRJP2.node[4].udp 	sentPk:count 	541
attr interpolationmode  none
attr source  sentPk
attr title  "packets sent, count"
scalar scenarioPRJP2.node[4].udp 	sentPk:sum(packetBytes) 	281320
attr interpolationmode  none
attr source  sentPk
attr title  "packets sent, sum(packetBytes)"
scalar scenarioPRJP2.node[4].networkLayer.arp 	failedARPResolution:count 	0
attr title  "ARP failed resolutions, count"
scalar scenarioPRJP2.node[4].networkLayer.arp 	completedARPResolution:count 	8
attr title  "ARP completed resolutions, count"
scalar scenarioPRJP2.node[4].networkLayer.arp 	initiatedARPResolution:count 	5
attr title  "ARP initiated resolutions, count"
scalar scenarioPRJP2.node[4].networkLayer.arp 	sentReply:count 	2
attr title  "ARP replies sent, count"
scalar scenarioPRJP2.node[4].networkLayer.arp 	sentReq:count 	5
attr title  "ARP request sent, count"
scalar scenarioPRJP2.node[4].mobility 	startTime 	0.1
scalar scenarioPRJP2.node[4].mobility 	totalTime 	649.9
scalar scenarioPRJP2.node[4].mobility 	stopTime 	650
scalar scenarioPRJP2.node[4].mobility 	minSpeed 	3.1641832375392e-12
scalar scenarioPRJP2.node[4].mobility 	maxSpeed 	11.109844444897
scalar scenarioPRJP2.node[4].mobility 	totalDistance 	4912.2976524749
scalar scenarioPRJP2.node[4].mobility 	totalCO2Emission 	1388.2075906477
scalar scenarioPRJP2.node[4].wlan.mgmt 	dataQueueLen:max 	0
attr interpolationmode  sample-hold
attr title  "data queue length, max"
scalar scenarioPRJP2.node[4].wlan.mgmt 	dataQueueLen:timeavg 	0
attr interpolationmode  sample-hold
attr title  "data queue length, timeavg"
scalar scenarioPRJP2.node[4].wlan.mgmt 	dropPkByQueue:count 	0
attr interpolationmode  none
attr source  dropPkByQueue
attr title  "packets dropped by queue, count"
scalar scenarioPRJP2.node[4].wlan.mgmt 	dropPkByQueue:sum(packetBytes) 	0
attr interpolationmode  none
attr source  dropPkByQueue
attr title  "packets dropped by queue, sum(packetBytes)"
scalar scenarioPRJP2.node[4].wlan.mac 	"number of received packets" 	232
scalar scenarioPRJP2.node[4].wlan.mac 	"number of collisions" 	78
scalar scenarioPRJP2.node[4].wlan.mac 	"number of internal collisions" 	0
scalar scenarioPRJP2.node[4].wlan.mac 	"number of retry for AC 0" 	246
scalar scenarioPRJP2.node[4].wlan.mac 	"number of retry for AC 1" 	0
scalar scenarioPRJP2.node[4].wlan.mac 	"number of retry for AC 2" 	0
scalar scenarioPRJP2.node[4].wlan.mac 	"number of retry for AC 3" 	0
scalar scenarioPRJP2.node[4].wlan.mac 	"sent and received bits" 	742832
scalar scenarioPRJP2.node[4].wlan.mac 	"sent packet within AC 0" 	148
scalar scenarioPRJP2.node[4].wlan.mac 	"sent packet within AC 1" 	0
scalar scenarioPRJP2.node[4].wlan.mac 	"sent packet within AC 2" 	0
scalar scenarioPRJP2.node[4].wlan.mac 	"sent packet within AC 3" 	0
scalar scenarioPRJP2.node[4].wlan.mac 	"sent in TXOP " 	0
scalar scenarioPRJP2.node[4].wlan.mac 	"sentWithoutRetry AC 0" 	125
scalar scenarioPRJP2.node[4].wlan.mac 	"sentWithoutRetry AC 1" 	0
scalar scenarioPRJP2.node[4].wlan.mac 	"sentWithoutRetry AC 2" 	0
scalar scenarioPRJP2.node[4].wlan.mac 	"sentWithoutRetry AC 3" 	0
scalar scenarioPRJP2.node[4].wlan.mac 	"numGivenUp AC 0" 	34
scalar scenarioPRJP2.node[4].wlan.mac 	"numGivenUp AC 1" 	0
scalar scenarioPRJP2.node[4].wlan.mac 	"numGivenUp AC 2" 	0
scalar scenarioPRJP2.node[4].wlan.mac 	"numGivenUp AC 3" 	0
scalar scenarioPRJP2.node[4].wlan.mac 	"numDropped AC 0" 	0
scalar scenarioPRJP2.node[4].wlan.mac 	"numDropped AC 1" 	0
scalar scenarioPRJP2.node[4].wlan.mac 	"numDropped AC 2" 	0
scalar scenarioPRJP2.node[4].wlan.mac 	"numDropped AC 3" 	0
scalar scenarioPRJP2.node[4].wlan.mac 	rcvdPkFromLL:count 	735
attr interpolationmode  none
attr source  packetReceivedFromLower
attr title  "packets received from lower layer, count"
scalar scenarioPRJP2.node[4].wlan.mac 	rcvdPkFromLL:sum(packetBytes) 	224497
attr interpolationmode  none
attr source  packetReceivedFromLower
attr title  "packets received from lower layer, sum(packetBytes)"
scalar scenarioPRJP2.node[4].wlan.mac 	sentDownPk:count 	768
attr interpolationmode  none
attr source  packetSentToLower
attr title  "packets sent to lower layer, count"
scalar scenarioPRJP2.node[4].wlan.mac 	sentDownPk:sum(packetBytes) 	256404
attr interpolationmode  none
attr source  packetSentToLower
attr title  "packets sent to lower layer, sum(packetBytes)"
scalar scenarioPRJP2.node[4].wlan.mac 	rcvdPkFromHL:count 	290
attr interpolationmode  none
attr source  packetReceivedFromUpper
attr title  "packets received from higher layer, count"
scalar scenarioPRJP2.node[4].wlan.mac 	rcvdPkFromHL:sum(packetBytes) 	112438
attr interpolationmode  none
attr source  packetReceivedFromUpper
attr title  "packets received from higher layer, sum(packetBytes)"
scalar scenarioPRJP2.node[4].wlan.mac 	passedUpPk:count 	314
attr interpolationmode  none
attr source  packetSentToUpper
attr title  "packets passed to higher layer, count"
scalar scenarioPRJP2.node[4].wlan.mac 	passedUpPk:sum(packetBytes) 	139339
attr interpolationmode  none
attr source  packetSentToUpper
attr title  "packets passed to higher layer, sum(packetBytes)"
statistic scenarioPRJP2.node[4].wlan.radio 	radioChannel:histogram
field count 1
field mean 3
field stddev -nan
field sum 3
field sqrsum 9
field min 3
field max 3
attr interpolationmode  sample-hold
attr source  radioChannelChanged
attr title  "Radio channel, histogram"
bin	-INF	0
bin	2	0
bin	3	1
bin	4	0
scalar scenarioPRJP2.node[4].wlan.radio 	transmissionState:count 	3072
attr interpolationmode  sample-hold
attr source  transmissionStateChanged
attr title  "Radio transmission state, count"
scalar scenarioPRJP2.node[4].wlan.radio 	receptionState:count 	3008
attr interpolationmode  sample-hold
attr source  receptionStateChanged
attr title  "Radio reception state, count"
scalar scenarioPRJP2.node[4].wlan.radio 	radioMode:count 	1538
attr interpolationmode  sample-hold
attr source  radioModeChanged
attr title  "Radio mode, count"
statistic scenarioPRJP2.node[4].wlan.radio 	symbolErrorRate:histogram
field count 0
field mean -nan
field stddev -nan
field sum 0
field sqrsum 0
field min -nan
field max -nan
attr source  symbolErrorRate
attr title  "Symbol error rate, histogram"
bin	-INF	0
bin	-0.5	0
bin	-0.46666666666667	0
bin	-0.43333333333333	0
bin	-0.4	0
bin	-0.36666666666667	0
bin	-0.33333333333333	0
bin	-0.3	0
bin	-0.26666666666667	0
bin	-0.23333333333333	0
bin	-0.2	0
bin	-0.16666666666667	0
bin	-0.13333333333333	0
bin	-0.1	0
bin	-0.066666666666667	0
bin	-0.033333333333333	0
bin	0	0
bin	0.033333333333333	0
bin	0.066666666666667	0
bin	0.1	0
bin	0.13333333333333	0
bin	0.16666666666667	0
bin	0.2	0
bin	0.23333333333333	0
bin	0.26666666666667	0
bin	0.3	0
bin	0.33333333333333	0
bin	0.36666666666667	0
bin	0.4	0
bin	0.43333333333333	0
bin	0.46666666666667	0
bin	0.5	0
statistic scenarioPRJP2.node[4].wlan.radio 	bitErrorRate:histogram
field count 0
field mean -nan
field stddev -nan
field sum 0
field sqrsum 0
field min -nan
field max -nan
attr source  bitErrorRate
attr title  "Bit error rate, histogram"
bin	-INF	0
bin	-0.5	0
bin	-0.46666666666667	0
bin	-0.43333333333333	0
bin	-0.4	0
bin	-0.36666666666667	0
bin	-0.33333333333333	0
bin	-0.3	0
bin	-0.26666666666667	0
bin	-0.23333333333333	0
bin	-0.2	0
bin	-0.16666666666667	0
bin	-0.13333333333333	0
bin	-0.1	0
bin	-0.066666666666667	0
bin	-0.033333333333333	0
bin	0	0
bin	0.033333333333333	0
bin	0.066666666666667	0
bin	0.1	0
bin	0.13333333333333	0
bin	0.16666666666667	0
bin	0.2	0
bin	0.23333333333333	0
bin	0.26666666666667	0
bin	0.3	0
bin	0.33333333333333	0
bin	0.36666666666667	0
bin	0.4	0
bin	0.43333333333333	0
bin	0.46666666666667	0
bin	0.5	0
statistic scenarioPRJP2.node[4].wlan.radio 	packetErrorRate:histogram
field count 735
field mean 0.10725555633385
field stddev 0.30465023072023
field sum 78.832833905383
field sqrsum 76.579093557068
field min 0
field max 1
attr source  packetErrorRate
attr title  "Packet error rate, histogram"
bin	-INF	0
bin	-0.5	0
bin	-0.43333333333333	0
bin	-0.36666666666667	0
bin	-0.3	0
bin	-0.23333333333333	0
bin	-0.16666666666667	0
bin	-0.1	0
bin	-0.033333333333333	651
bin	0.033333333333333	1
bin	0.1	0
bin	0.16666666666667	0
bin	0.23333333333333	0
bin	0.3	2
bin	0.36666666666667	3
bin	0.43333333333333	0
bin	0.5	2
bin	0.56666666666667	0
bin	0.63333333333333	0
bin	0.7	1
bin	0.76666666666667	0
bin	0.83333333333333	1
bin	0.9	0
bin	0.96666666666667	74
bin	1.0333333333333	0
bin	1.1	0
bin	1.1666666666667	0
bin	1.2333333333333	0
bin	1.3	0
bin	1.3666666666667	0
bin	1.4333333333333	0
bin	1.5	0
statistic scenarioPRJP2.node[4].wlan.radio 	minSNIR:histogram
field count 735
field mean 693.83441202926
field stddev 6887.8511179956
field sum 509968.29284151
field sqrsum 35176623429.993
field min 0.43523320206381
field max 130855.55618579
attr source  minSNIR
attr title  "Min SNIR, histogram"
bin	-INF	0
bin	-1622.0006988537	0
bin	-1405.4025521263	0
bin	-1188.804405399	0
bin	-972.20625867159	0
bin	-755.60811194423	0
bin	-539.00996521686	0
bin	-322.4118184895	0
bin	-105.81367176213	137
bin	110.78447496523	494
bin	327.38262169259	49
bin	543.98076841996	4
bin	760.57891514732	10
bin	977.17706187468	7
bin	1193.775208602	2
bin	1410.3733553294	4
bin	1626.9715020568	5
bin	1843.5696487841	1
bin	2060.1677955115	1
bin	2276.7659422389	4
bin	2493.3640889662	0
bin	2709.9622356936	4
bin	2926.560382421	2
bin	3143.1585291483	1
bin	3359.7566758757	0
bin	3576.354822603	1
bin	3792.9529693304	0
bin	4009.5511160578	0
bin	4226.1492627851	0
bin	4442.7474095125	0
bin	4659.3455562399	0
bin	4875.9437029672	9
scalar scenarioPRJP2.node[4].lo0.lo 	droppedPkBitError:count 	0
attr interpolationmode  none
attr source  dropPkBitError
attr title  "packets dropped/bit error, count"
scalar scenarioPRJP2.node[4].lo0.lo 	droppedPkBitError:sum(packetBytes) 	0
attr interpolationmode  none
attr source  dropPkBitError
attr title  "packets dropped/bit error, sum(packetBytes)"
scalar scenarioPRJP2.node[4].lo0.lo 	rcvdPkFromHL:count 	0
attr interpolationmode  none
attr source  packetReceivedFromUpper
attr title  "packets received from higher layer, count"
scalar scenarioPRJP2.node[4].lo0.lo 	rcvdPkFromHL:sum(packetBytes) 	0
attr interpolationmode  none
attr source  packetReceivedFromUpper
attr title  "packets received from higher layer, sum(packetBytes)"
scalar scenarioPRJP2.node[4].lo0.lo 	passedUpPk:count 	0
attr interpolationmode  none
attr source  packetSentToUpper
attr title  "packets passed to higher layer, count"
scalar scenarioPRJP2.node[4].lo0.lo 	passedUpPk:sum(packetBytes) 	0
attr interpolationmode  none
attr source  packetSentToUpper
attr title  "packets passed to higher layer, sum(packetBytes)"
scalar scenarioPRJP2.node[5].app 	"Total sent" 	543
scalar scenarioPRJP2.node[5].app 	"Total received" 	160
scalar scenarioPRJP2.node[5].app 	"Total deleted" 	0
scalar scenarioPRJP2.node[5].app 	dropPk:count 	0
attr interpolationmode  none
attr source  dropPk
attr title  "packets dropped, count"
scalar scenarioPRJP2.node[5].app 	dropPk:sum(packetBytes) 	0
attr interpolationmode  none
attr source  dropPk
attr title  "packets dropped, sum(packetBytes)"
scalar scenarioPRJP2.node[5].app 	outOfOrderPk:count 	0
attr interpolationmode  none
attr source  outOfOrderPk
attr title  "packets received out of order, count"
scalar scenarioPRJP2.node[5].app 	outOfOrderPk:sum(packetBytes) 	0
attr interpolationmode  none
attr source  outOfOrderPk
attr title  "packets received out of order, sum(packetBytes)"
scalar scenarioPRJP2.node[5].app 	rcvdPk:count 	160
attr interpolationmode  none
attr source  rcvdPk
attr title  "packets received, count"
scalar scenarioPRJP2.node[5].app 	rcvdPk:sum(packetBytes) 	81920
attr interpolationmode  none
attr source  rcvdPk
attr title  "packets received, sum(packetBytes)"
statistic scenarioPRJP2.node[5].app 	endToEndDelay:histogram
field count 160
field mean 4.8434773987336
field stddev 9.026175980813
field sum 774.95638379737
field sqrsum 16707.508330947
field min 0.000972274136
field max 35.006329857876
attr interpolationmode  none
attr source  messageAge(rcvdPk)
attr title  "delay, histogram"
attr unit  s
bin	-INF	0
bin	-17.501706517734	0
bin	-15.168016012151	0
bin	-12.834325506569	0
bin	-10.500635000986	0
bin	-8.1669444954033	0
bin	-5.8332539898207	0
bin	-3.499563484238	0
bin	-1.1658729786553	113
bin	1.1678175269273	2
bin	3.50150803251	4
bin	5.8351985380927	4
bin	8.1688890436753	4
bin	10.502579549258	6
bin	12.836270054841	4
bin	15.169960560423	4
bin	17.503651066006	3
bin	19.837341571589	3
bin	22.171032077171	2
bin	24.504722582754	2
bin	26.838413088337	3
bin	29.172103593919	2
bin	31.505794099502	2
bin	33.839484605085	2
bin	36.173175110667	0
bin	38.50686561625	0
bin	40.840556121833	0
bin	43.174246627415	0
bin	45.507937132998	0
bin	47.841627638581	0
bin	50.175318144163	0
bin	52.509008649746	0
scalar scenarioPRJP2.node[5].app 	sentPk:count 	543
attr interpolationmode  none
attr source  sentPk
attr title  "packets sent, count"
scalar scenarioPRJP2.node[5].app 	sentPk:sum(packetBytes) 	278016
attr interpolationmode  none
attr source  sentPk
attr title  "packets sent, sum(packetBytes)"
scalar scenarioPRJP2.node[5].udp 	droppedPkBadChecksum:count 	0
attr interpolationmode  none
attr title  "packets dropped (checksum error), count"
scalar scenarioPRJP2.node[5].udp 	droppedPkWrongPort:count 	0
attr interpolationmode  none
attr title  "packets dropped (wrong port), count"
scalar scenarioPRJP2.node[5].udp 	passedUpPk:count 	160
attr interpolationmode  none
attr title  "packets passed up, count"
scalar scenarioPRJP2.node[5].udp 	rcvdPk:count 	160
attr interpolationmode  none
attr source  rcvdPk
attr title  "packets received, count"
scalar scenarioPRJP2.node[5].udp 	rcvdPk:sum(packetBytes) 	83200
attr interpolationmode  none
attr source  rcvdPk
attr title  "packets received, sum(packetBytes)"
scalar scenarioPRJP2.node[5].udp 	sentPk:count 	543
attr interpolationmode  none
attr source  sentPk
attr title  "packets sent, count"
scalar scenarioPRJP2.node[5].udp 	sentPk:sum(packetBytes) 	282360
attr interpolationmode  none
attr source  sentPk
attr title  "packets sent, sum(packetBytes)"
scalar scenarioPRJP2.node[5].networkLayer.arp 	failedARPResolution:count 	0
attr title  "ARP failed resolutions, count"
scalar scenarioPRJP2.node[5].networkLayer.arp 	completedARPResolution:count 	16
attr title  "ARP completed resolutions, count"
scalar scenarioPRJP2.node[5].networkLayer.arp 	initiatedARPResolution:count 	5
attr title  "ARP initiated resolutions, count"
scalar scenarioPRJP2.node[5].networkLayer.arp 	sentReply:count 	5
attr title  "ARP replies sent, count"
scalar scenarioPRJP2.node[5].networkLayer.arp 	sentReq:count 	5
attr title  "ARP request sent, count"
scalar scenarioPRJP2.node[5].mobility 	startTime 	0.1
scalar scenarioPRJP2.node[5].mobility 	totalTime 	649.9
scalar scenarioPRJP2.node[5].mobility 	stopTime 	650
scalar scenarioPRJP2.node[5].mobility 	minSpeed 	5.8583367599116e-14
scalar scenarioPRJP2.node[5].mobility 	maxSpeed 	11.109977166527
scalar scenarioPRJP2.node[5].mobility 	totalDistance 	4696.9574177752
scalar scenarioPRJP2.node[5].mobility 	totalCO2Emission 	1309.9988004636
scalar scenarioPRJP2.node[5].wlan.mgmt 	dataQueueLen:max 	0
attr interpolationmode  sample-hold
attr title  "data queue length, max"
scalar scenarioPRJP2.node[5].wlan.mgmt 	dataQueueLen:timeavg 	0
attr interpolationmode  sample-hold
attr title  "data queue length, timeavg"
scalar scenarioPRJP2.node[5].wlan.mgmt 	dropPkByQueue:count 	0
attr interpolationmode  none
attr source  dropPkByQueue
attr title  "packets dropped by queue, count"
scalar scenarioPRJP2.node[5].wlan.mgmt 	dropPkByQueue:sum(packetBytes) 	0
attr interpolationmode  none
attr source  dropPkByQueue
attr title  "packets dropped by queue, sum(packetBytes)"
scalar scenarioPRJP2.node[5].wlan.mac 	"number of received packets" 	361
scalar scenarioPRJP2.node[5].wlan.mac 	"number of collisions" 	70
scalar scenarioPRJP2.node[5].wlan.mac 	"number of internal collisions" 	0
scalar scenarioPRJP2.node[5].wlan.mac 	"number of retry for AC 0" 	145
scalar scenarioPRJP2.node[5].wlan.mac 	"number of retry for AC 1" 	0
scalar scenarioPRJP2.node[5].wlan.mac 	"number of retry for AC 2" 	0
scalar scenarioPRJP2.node[5].wlan.mac 	"number of retry for AC 3" 	0
scalar scenarioPRJP2.node[5].wlan.mac 	"sent and received bits" 	1769296
scalar scenarioPRJP2.node[5].wlan.mac 	"sent packet within AC 0" 	361
scalar scenarioPRJP2.node[5].wlan.mac 	"sent packet within AC 1" 	0
scalar scenarioPRJP2.node[5].wlan.mac 	"sent packet within AC 2" 	0
scalar scenarioPRJP2.node[5].wlan.mac 	"sent packet within AC 3" 	0
scalar scenarioPRJP2.node[5].wlan.mac 	"sent in TXOP " 	0
scalar scenarioPRJP2.node[5].wlan.mac 	"sentWithoutRetry AC 0" 	335
scalar scenarioPRJP2.node[5].wlan.mac 	"sentWithoutRetry AC 1" 	0
scalar scenarioPRJP2.node[5].wlan.mac 	"sentWithoutRetry AC 2" 	0
scalar scenarioPRJP2.node[5].wlan.mac 	"sentWithoutRetry AC 3" 	0
scalar scenarioPRJP2.node[5].wlan.mac 	"numGivenUp AC 0" 	15
scalar scenarioPRJP2.node[5].wlan.mac 	"numGivenUp AC 1" 	0
scalar scenarioPRJP2.node[5].wlan.mac 	"numGivenUp AC 2" 	0
scalar scenarioPRJP2.node[5].wlan.mac 	"numGivenUp AC 3" 	0
scalar scenarioPRJP2.node[5].wlan.mac 	"numDropped AC 0" 	0
scalar scenarioPRJP2.node[5].wlan.mac 	"numDropped AC 1" 	0
scalar scenarioPRJP2.node[5].wlan.mac 	"numDropped AC 2" 	0
scalar scenarioPRJP2.node[5].wlan.mac 	"numDropped AC 3" 	0
scalar scenarioPRJP2.node[5].wlan.mac 	rcvdPkFromLL:count 	2078
attr interpolationmode  none
attr source  packetReceivedFromLower
attr title  "packets received from lower layer, count"
scalar scenarioPRJP2.node[5].wlan.mac 	rcvdPkFromLL:sum(packetBytes) 	563703
attr interpolationmode  none
attr source  packetReceivedFromLower
attr title  "packets received from lower layer, sum(packetBytes)"
scalar scenarioPRJP2.node[5].wlan.mac 	sentDownPk:count 	1049
attr interpolationmode  none
attr source  packetSentToLower
attr title  "packets sent to lower layer, count"
scalar scenarioPRJP2.node[5].wlan.mac 	sentDownPk:sum(packetBytes) 	318376
attr interpolationmode  none
attr source  packetSentToLower
attr title  "packets sent to lower layer, sum(packetBytes)"
scalar scenarioPRJP2.node[5].wlan.mac 	rcvdPkFromHL:count 	543
attr interpolationmode  none
attr source  packetReceivedFromUpper
attr title  "packets received from higher layer, count"
scalar scenarioPRJP2.node[5].wlan.mac 	rcvdPkFromHL:sum(packetBytes) 	229802
attr interpolationmode  none
attr source  packetReceivedFromUpper
attr title  "packets received from higher layer, sum(packetBytes)"
scalar scenarioPRJP2.node[5].wlan.mac 	passedUpPk:count 	664
attr interpolationmode  none
attr source  packetSentToUpper
attr title  "packets passed to higher layer, count"
scalar scenarioPRJP2.node[5].wlan.mac 	passedUpPk:sum(packetBytes) 	235794
attr interpolationmode  none
attr source  packetSentToUpper
attr title  "packets passed to higher layer, sum(packetBytes)"
statistic scenarioPRJP2.node[5].wlan.radio 	radioChannel:histogram
field count 1
field mean 3
field stddev -nan
field sum 3
field sqrsum 9
field min 3
field max 3
attr interpolationmode  sample-hold
attr source  radioChannelChanged
attr title  "Radio channel, histogram"
bin	-INF	0
bin	2	0
bin	3	1
bin	4	0
scalar scenarioPRJP2.node[5].wlan.radio 	transmissionState:count 	4196
attr interpolationmode  sample-hold
attr source  transmissionStateChanged
attr title  "Radio transmission state, count"
scalar scenarioPRJP2.node[5].wlan.radio 	receptionState:count 	6264
attr interpolationmode  sample-hold
attr source  receptionStateChanged
attr title  "Radio reception state, count"
scalar scenarioPRJP2.node[5].wlan.radio 	radioMode:count 	2100
attr interpolationmode  sample-hold
attr source  radioModeChanged
attr title  "Radio mode, count"
statistic scenarioPRJP2.node[5].wlan.radio 	symbolErrorRate:histogram
field count 0
field mean -nan
field stddev -nan
field sum 0
field sqrsum 0
field min -nan
field max -nan
attr source  symbolErrorRate
attr title  "Symbol error rate, histogram"
bin	-INF	0
bin	-0.5	0
bin	-0.46666666666667	0
bin	-0.43333333333333	0
bin	-0.4	0
bin	-0.36666666666667	0
[...]
attr interpolationmode  none
attr source  packetReceivedFromUpper
attr title  "packets received from higher layer, sum(packetBytes)"
scalar scenarioPRJP2.node[8].wlan.mac 	passedUpPk:count 	312
attr interpolationmode  none
attr source  packetSentToUpper
attr title  "packets passed to higher layer, count"
scalar scenarioPRJP2.node[8].wlan.mac 	passedUpPk:sum(packetBytes) 	128611
attr interpolationmode  none
attr source  packetSentToUpper
attr title  "packets passed to higher layer, sum(packetBytes)"
statistic scenarioPRJP2.node[8].wlan.radio 	radioChannel:histogram
field count 1
field mean 3
field stddev -nan
field sum 3
field sqrsum 9
field min 3
field max 3
attr interpolationmode  sample-hold
attr source  radioChannelChanged
attr title  "Radio channel, histogram"
bin	-INF	0
bin	2	0
bin	3	1
bin	4	0
scalar scenarioPRJP2.node[8].wlan.radio 	transmissionState:count 	2304
attr interpolationmode  sample-hold
attr source  transmissionStateChanged
attr title  "Radio transmission state, count"
scalar scenarioPRJP2.node[8].wlan.radio 	receptionState:count 	3189
attr interpolationmode  sample-hold
attr source  receptionStateChanged
attr title  "Radio reception state, count"
scalar scenarioPRJP2.node[8].wlan.radio 	radioMode:count 	1154
attr interpolationmode  sample-hold
attr source  radioModeChanged
attr title  "Radio mode, count"
statistic scenarioPRJP2.node[8].wlan.radio 	symbolErrorRate:histogram
field count 0
field mean -nan
field stddev -nan
field sum 0
field sqrsum 0
field min -nan
field max -nan
attr source  symbolErrorRate
attr title  "Symbol error rate, histogram"
bin	-INF	0
bin	-0.5	0
bin	-0.46666666666667	0
bin	-0.43333333333333	0
bin	-0.4	0
bin	-0.36666666666667	0
bin	-0.33333333333333	0
bin	-0.3	0
bin	-0.26666666666667	0
bin	-0.23333333333333	0
bin	-0.2	0
bin	-0.16666666666667	0
bin	-0.13333333333333	0
bin	-0.1	0
bin	-0.066666666666667	0
bin	-0.033333333333333	0
bin	0	0
bin	0.033333333333333	0
bin	0.066666666666667	0
bin	0.1	0
bin	0.13333333333333	0
bin	0.16666666666667	0
bin	0.2	0
bin	0.23333333333333	0
bin	0.26666666666667	0
bin	0.3	0
bin	0.33333333333333	0
bin	0.36666666666667	0
bin	0.4	0
bin	0.43333333333333	0
bin	0.46666666666667	0
bin	0.5	0
statistic scenarioPRJP2.node[8].wlan.radio 	bitErrorRate:histogram
field count 0
field mean -nan
field stddev -nan
field sum 0
field sqrsum 0
field min -nan
field max -nan
attr source  bitErrorRate
attr title  "Bit error rate, histogram"
bin	-INF	0
bin	-0.5	0
bin	-0.46666666666667	0
bin	-0.43333333333333	0
bin	-0.4	0
bin	-0.36666666666667	0
bin	-0.33333333333333	0
bin	-0.3	0
bin	-0.26666666666667	0
bin	-0.23333333333333	0
bin	-0.2	0
bin	-0.16666666666667	0
bin	-0.13333333333333	0
bin	-0.1	0
bin	-0.066666666666667	0
bin	-0.033333333333333	0
bin	0	0
bin	0.033333333333333	0
bin	0.066666666666667	0
bin	0.1	0
bin	0.13333333333333	0
bin	0.16666666666667	0
bin	0.2	0
bin	0.23333333333333	0
bin	0.26666666666667	0
bin	0.3	0
bin	0.33333333333333	0
bin	0.36666666666667	0
bin	0.4	0
bin	0.43333333333333	0
bin	0.46666666666667	0
bin	0.5	0
statistic scenarioPRJP2.node[8].wlan.radio 	packetErrorRate:histogram
field count 1007
field mean 0.065905371673882
field stddev 0.24645105202767
field sum 66.366709275599
field sqrsum 65.476472413401
field min 0
field max 1
attr source  packetErrorRate
attr title  "Packet error rate, histogram"
bin	-INF	0
bin	-0.0048067789326071	0
bin	-0.0041658750749262	0
bin	-0.0035249712172452	0
bin	-0.0028840673595643	0
bin	-0.0022431635018833	0
bin	-0.0016022596442024	0
bin	-0.00096135578652142	0
bin	-0.00032045192884047	934
bin	0.00032045192884047	0
bin	0.00096135578652142	0
bin	0.0016022596442024	0
bin	0.0022431635018833	1
bin	0.0028840673595643	1
bin	0.0035249712172452	0
bin	0.0041658750749262	0
bin	0.0048067789326071	0
bin	0.0054476827902881	0
bin	0.006088586647969	0
bin	0.00672949050565	0
bin	0.0073703943633309	0
bin	0.0080112982210119	0
bin	0.0086522020786928	0
bin	0.0092931059363738	1
bin	0.0099340097940547	0
bin	0.010574913651736	0
bin	0.011215817509417	0
bin	0.011856721367098	0
bin	0.012497625224778	0
bin	0.013138529082459	0
bin	0.01377943294014	0
bin	0.014420336797821	70
statistic scenarioPRJP2.node[8].wlan.radio 	minSNIR:histogram
field count 1007
field mean 2126.6925167808
field stddev 13965.227913956
field sum 2141579.3643983
field sqrsum 200752237041.22
field min 0.44841231328192
field max 176622.14376647
attr source  minSNIR
attr title  "Min SNIR, histogram"
bin	-INF	0
bin	-61110.179946421	0
bin	-52961.430001027	0
bin	-44812.680055633	0
bin	-36663.930110238	0
bin	-28515.180164844	0
bin	-20366.43021945	0
bin	-12217.680274056	0
bin	-4068.9303286617	953
bin	4079.8196167325	38
bin	12228.569562127	0
bin	20377.319507521	5
bin	28526.069452915	0
bin	36674.819398309	0
bin	44823.569343703	3
bin	52972.319289098	0
bin	61121.069234492	0
bin	69269.819179886	0
bin	77418.56912528	1
bin	85567.319070674	0
bin	93716.069016069	0
bin	101864.81896146	0
bin	110013.56890686	0
bin	118162.31885225	2
bin	126311.06879765	0
bin	134459.81874304	0
bin	142608.56868843	0
bin	150757.31863383	0
bin	158906.06857922	1
bin	167054.81852462	0
bin	175203.56847001	4
bin	183352.3184154	0
scalar scenarioPRJP2.node[8].lo0.lo 	droppedPkBitError:count 	0
attr interpolationmode  none
attr source  dropPkBitError
attr title  "packets dropped/bit error, count"
scalar scenarioPRJP2.node[8].lo0.lo 	droppedPkBitError:sum(packetBytes) 	0
attr interpolationmode  none
attr source  dropPkBitError
attr title  "packets dropped/bit error, sum(packetBytes)"
scalar scenarioPRJP2.node[8].lo0.lo 	rcvdPkFromHL:count 	0
attr interpolationmode  none
attr source  packetReceivedFromUpper
attr title  "packets received from higher layer, count"
scalar scenarioPRJP2.node[8].lo0.lo 	rcvdPkFromHL:sum(packetBytes) 	0
attr interpolationmode  none
attr source  packetReceivedFromUpper
attr title  "packets received from higher layer, sum(packetBytes)"
scalar scenarioPRJP2.node[8].lo0.lo 	passedUpPk:count 	0
attr interpolationmode  none
attr source  packetSentToUpper
attr title  "packets passed to higher layer, count"
scalar scenarioPRJP2.node[8].lo0.lo 	passedUpPk:sum(packetBytes) 	0
attr interpolationmode  none
attr source  packetSentToUpper
attr title  "packets passed to higher layer, sum(packetBytes)"
scalar scenarioPRJP2.node[9].app 	"Total sent" 	544
scalar scenarioPRJP2.node[9].app 	"Total received" 	67
scalar scenarioPRJP2.node[9].app 	"Total deleted" 	0
scalar scenarioPRJP2.node[9].app 	dropPk:count 	0
attr interpolationmode  none
attr source  dropPk
attr title  "packets dropped, count"
scalar scenarioPRJP2.node[9].app 	dropPk:sum(packetBytes) 	0
attr interpolationmode  none
attr source  dropPk
attr title  "packets dropped, sum(packetBytes)"
scalar scenarioPRJP2.node[9].app 	outOfOrderPk:count 	0
attr interpolationmode  none
attr source  outOfOrderPk
attr title  "packets received out of order, count"
scalar scenarioPRJP2.node[9].app 	outOfOrderPk:sum(packetBytes) 	0
attr interpolationmode  none
attr source  outOfOrderPk
attr title  "packets received out of order, sum(packetBytes)"
scalar scenarioPRJP2.node[9].app 	rcvdPk:count 	67
attr interpolationmode  none
attr source  rcvdPk
attr title  "packets received, count"
scalar scenarioPRJP2.node[9].app 	rcvdPk:sum(packetBytes) 	34304
attr interpolationmode  none
attr source  rcvdPk
attr title  "packets received, sum(packetBytes)"
statistic scenarioPRJP2.node[9].app 	endToEndDelay:histogram
field count 67
field mean 9.7502779551474
field stddev 11.570999820498
field sum 653.26862299487
field sqrsum 15206.16108541
field min 0.000972630104
field max 35.030724525815
attr interpolationmode  none
attr source  messageAge(rcvdPk)
attr title  "delay, histogram"
attr unit  s
bin	-INF	0
bin	-17.513903317751	0
bin	-15.178586524704	0
bin	-12.843269731657	0
bin	-10.507952938609	0
bin	-8.1726361455619	0
bin	-5.8373193525145	0
bin	-3.5020025594671	0
bin	-1.1666857664197	30
bin	1.1686310266277	3
bin	3.5039478196751	2
bin	5.8392646127225	4
bin	8.1745814057699	3
bin	10.509898198817	2
bin	12.845214991865	2
bin	15.180531784912	3
bin	17.515848577959	2
bin	19.851165371007	3
bin	22.186482164054	2
bin	24.521798957102	2
bin	26.857115750149	3
bin	29.192432543196	2
bin	31.527749336244	2
bin	33.863066129291	2
bin	36.198382922339	0
bin	38.533699715386	0
bin	40.869016508433	0
bin	43.204333301481	0
bin	45.539650094528	0
bin	47.874966887576	0
bin	50.210283680623	0
bin	52.54560047367	0
scalar scenarioPRJP2.node[9].app 	sentPk:count 	544
attr interpolationmode  none
attr source  sentPk
attr title  "packets sent, count"
scalar scenarioPRJP2.node[9].app 	sentPk:sum(packetBytes) 	278528
attr interpolationmode  none
attr source  sentPk
attr title  "packets sent, sum(packetBytes)"
scalar scenarioPRJP2.node[9].udp 	droppedPkBadChecksum:count 	0
attr interpolationmode  none
attr title  "packets dropped (checksum error), count"
scalar scenarioPRJP2.node[9].udp 	droppedPkWrongPort:count 	0
attr interpolationmode  none
attr title  "packets dropped (wrong port), count"
scalar scenarioPRJP2.node[9].udp 	passedUpPk:count 	67
attr interpolationmode  none
attr title  "packets passed up, count"
scalar scenarioPRJP2.node[9].udp 	rcvdPk:count 	67
attr interpolationmode  none
attr source  rcvdPk
attr title  "packets received, count"
scalar scenarioPRJP2.node[9].udp 	rcvdPk:sum(packetBytes) 	34840
attr interpolationmode  none
attr source  rcvdPk
attr title  "packets received, sum(packetBytes)"
scalar scenarioPRJP2.node[9].udp 	sentPk:count 	544
attr interpolationmode  none
attr source  sentPk
attr title  "packets sent, count"
scalar scenarioPRJP2.node[9].udp 	sentPk:sum(packetBytes) 	282880
attr interpolationmode  none
attr source  sentPk
attr title  "packets sent, sum(packetBytes)"
scalar scenarioPRJP2.node[9].networkLayer.arp 	failedARPResolution:count 	0
attr title  "ARP failed resolutions, count"
scalar scenarioPRJP2.node[9].networkLayer.arp 	completedARPResolution:count 	5
attr title  "ARP completed resolutions, count"
scalar scenarioPRJP2.node[9].networkLayer.arp 	initiatedARPResolution:count 	1
attr title  "ARP initiated resolutions, count"
scalar scenarioPRJP2.node[9].networkLayer.arp 	sentReply:count 	1
attr title  "ARP replies sent, count"
scalar scenarioPRJP2.node[9].networkLayer.arp 	sentReq:count 	1
attr title  "ARP request sent, count"
scalar scenarioPRJP2.node[9].mobility 	startTime 	0.1
scalar scenarioPRJP2.node[9].mobility 	totalTime 	649.9
scalar scenarioPRJP2.node[9].mobility 	stopTime 	650
scalar scenarioPRJP2.node[9].mobility 	minSpeed 	5.8548402873788e-14
scalar scenarioPRJP2.node[9].mobility 	maxSpeed 	11.109991520206
scalar scenarioPRJP2.node[9].mobility 	totalDistance 	4311.4802249386
scalar scenarioPRJP2.node[9].mobility 	totalCO2Emission 	1261.5718428164
scalar scenarioPRJP2.node[9].wlan.mgmt 	dataQueueLen:max 	0
attr interpolationmode  sample-hold
attr title  "data queue length, max"
scalar scenarioPRJP2.node[9].wlan.mgmt 	dataQueueLen:timeavg 	0
attr interpolationmode  sample-hold
attr title  "data queue length, timeavg"
scalar scenarioPRJP2.node[9].wlan.mgmt 	dropPkByQueue:count 	0
attr interpolationmode  none
attr source  dropPkByQueue
attr title  "packets dropped by queue, count"
scalar scenarioPRJP2.node[9].wlan.mgmt 	dropPkByQueue:sum(packetBytes) 	0
attr interpolationmode  none
attr source  dropPkByQueue
attr title  "packets dropped by queue, sum(packetBytes)"
scalar scenarioPRJP2.node[9].wlan.mac 	"number of received packets" 	77
scalar scenarioPRJP2.node[9].wlan.mac 	"number of collisions" 	13
scalar scenarioPRJP2.node[9].wlan.mac 	"number of internal collisions" 	0
scalar scenarioPRJP2.node[9].wlan.mac 	"number of retry for AC 0" 	52
scalar scenarioPRJP2.node[9].wlan.mac 	"number of retry for AC 1" 	0
scalar scenarioPRJP2.node[9].wlan.mac 	"number of retry for AC 2" 	0
scalar scenarioPRJP2.node[9].wlan.mac 	"number of retry for AC 3" 	0
scalar scenarioPRJP2.node[9].wlan.mac 	"sent and received bits" 	344768
scalar scenarioPRJP2.node[9].wlan.mac 	"sent packet within AC 0" 	54
scalar scenarioPRJP2.node[9].wlan.mac 	"sent packet within AC 1" 	0
scalar scenarioPRJP2.node[9].wlan.mac 	"sent packet within AC 2" 	0
scalar scenarioPRJP2.node[9].wlan.mac 	"sent packet within AC 3" 	0
scalar scenarioPRJP2.node[9].wlan.mac 	"sent in TXOP " 	0
scalar scenarioPRJP2.node[9].wlan.mac 	"sentWithoutRetry AC 0" 	53
scalar scenarioPRJP2.node[9].wlan.mac 	"sentWithoutRetry AC 1" 	0
scalar scenarioPRJP2.node[9].wlan.mac 	"sentWithoutRetry AC 2" 	0
scalar scenarioPRJP2.node[9].wlan.mac 	"sentWithoutRetry AC 3" 	0
scalar scenarioPRJP2.node[9].wlan.mac 	"numGivenUp AC 0" 	8
scalar scenarioPRJP2.node[9].wlan.mac 	"numGivenUp AC 1" 	0
scalar scenarioPRJP2.node[9].wlan.mac 	"numGivenUp AC 2" 	0
scalar scenarioPRJP2.node[9].wlan.mac 	"numGivenUp AC 3" 	0
scalar scenarioPRJP2.node[9].wlan.mac 	"numDropped AC 0" 	0
scalar scenarioPRJP2.node[9].wlan.mac 	"numDropped AC 1" 	0
scalar scenarioPRJP2.node[9].wlan.mac 	"numDropped AC 2" 	0
scalar scenarioPRJP2.node[9].wlan.mac 	"numDropped AC 3" 	0
scalar scenarioPRJP2.node[9].wlan.mac 	rcvdPkFromLL:count 	724
attr interpolationmode  none
attr source  packetReceivedFromLower
attr title  "packets received from lower layer, count"
scalar scenarioPRJP2.node[9].wlan.mac 	rcvdPkFromLL:sum(packetBytes) 	186298
attr interpolationmode  none
attr source  packetReceivedFromLower
attr title  "packets received from lower layer, sum(packetBytes)"
scalar scenarioPRJP2.node[9].wlan.mac 	sentDownPk:count 	317
attr interpolationmode  none
attr source  packetSentToLower
attr title  "packets sent to lower layer, count"
scalar scenarioPRJP2.node[9].wlan.mac 	sentDownPk:sum(packetBytes) 	78734
attr interpolationmode  none
attr source  packetSentToLower
attr title  "packets sent to lower layer, sum(packetBytes)"
scalar scenarioPRJP2.node[9].wlan.mac 	rcvdPkFromHL:count 	188
attr interpolationmode  none
attr source  packetReceivedFromUpper
attr title  "packets received from higher layer, count"
scalar scenarioPRJP2.node[9].wlan.mac 	rcvdPkFromHL:sum(packetBytes) 	47704
attr interpolationmode  none
attr source  packetReceivedFromUpper
attr title  "packets received from higher layer, sum(packetBytes)"
scalar scenarioPRJP2.node[9].wlan.mac 	passedUpPk:count 	211
attr interpolationmode  none
attr source  packetSentToUpper
attr title  "packets passed to higher layer, count"
scalar scenarioPRJP2.node[9].wlan.mac 	passedUpPk:sum(packetBytes) 	54511
attr interpolationmode  none
attr source  packetSentToUpper
attr title  "packets passed to higher layer, sum(packetBytes)"
statistic scenarioPRJP2.node[9].wlan.radio 	radioChannel:histogram
field count 1
field mean 3
field stddev -nan
field sum 3
field sqrsum 9
field min 3
field max 3
attr interpolationmode  sample-hold
attr source  radioChannelChanged
attr title  "Radio channel, histogram"
bin	-INF	0
bin	2	0
bin	3	1
bin	4	0
scalar scenarioPRJP2.node[9].wlan.radio 	transmissionState:count 	1268
attr interpolationmode  sample-hold
attr source  transmissionStateChanged
attr title  "Radio transmission state, count"
scalar scenarioPRJP2.node[9].wlan.radio 	receptionState:count 	2083
attr interpolationmode  sample-hold
attr source  receptionStateChanged
attr title  "Radio reception state, count"
scalar scenarioPRJP2.node[9].wlan.radio 	radioMode:count 	636
attr interpolationmode  sample-hold
attr source  radioModeChanged
attr title  "Radio mode, count"
statistic scenarioPRJP2.node[9].wlan.radio 	symbolErrorRate:histogram
field count 0
field mean -nan
field stddev -nan
field sum 0
field sqrsum 0
field min -nan
field max -nan
attr source  symbolErrorRate
attr title  "Symbol error rate, histogram"
bin	-INF	0
bin	-0.5	0
bin	-0.46666666666667	0
bin	-0.43333333333333	0
bin	-0.4	0
bin	-0.36666666666667	0
bin	-0.33333333333333	0
bin	-0.3	0
bin	-0.26666666666667	0
bin	-0.23333333333333	0
bin	-0.2	0
bin	-0.16666666666667	0
bin	-0.13333333333333	0
bin	-0.1	0
bin	-0.066666666666667	0
bin	-0.033333333333333	0
bin	0	0
bin	0.033333333333333	0
bin	0.066666666666667	0
bin	0.1	0
bin	0.13333333333333	0
bin	0.16666666666667	0
bin	0.2	0
bin	0.23333333333333	0
bin	0.26666666666667	0
bin	0.3	0
bin	0.33333333333333	0
bin	0.36666666666667	0
bin	0.4	0
bin	0.43333333333333	0
bin	0.46666666666667	0
bin	0.5	0
statistic scenarioPRJP2.node[9].wlan.radio 	bitErrorRate:histogram
field count 0
field mean -nan
field stddev -nan
field sum 0
field sqrsum 0
field min -nan
field max -nan
attr source  bitErrorRate
attr title  "Bit error rate, histogram"
bin	-INF	0
bin	-0.5	0
bin	-0.46666666666667	0
bin	-0.43333333333333	0
bin	-0.4	0
bin	-0.36666666666667	0
bin	-0.33333333333333	0
bin	-0.3	0
bin	-0.26666666666667	0
bin	-0.23333333333333	0
bin	-0.2	0
bin	-0.16666666666667	0
bin	-0.13333333333333	0
bin	-0.1	0
bin	-0.066666666666667	0
bin	-0.033333333333333	0
bin	0	0
bin	0.033333333333333	0
bin	0.066666666666667	0
bin	0.1	0
bin	0.13333333333333	0
bin	0.16666666666667	0
bin	0.2	0
bin	0.23333333333333	0
bin	0.26666666666667	0
bin	0.3	0
bin	0.33333333333333	0
bin	0.36666666666667	0
bin	0.4	0
bin	0.43333333333333	0
bin	0.46666666666667	0
bin	0.5	0
statistic scenarioPRJP2.node[9].wlan.radio 	packetErrorRate:histogram
field count 724
field mean 0.016684517388076
field stddev 0.11362231127239
field sum 12.079590588967
field sqrsum 9.535493553673
field min 0
field max 1
attr source  packetErrorRate
attr title  "Packet error rate, histogram"
bin	-INF	0
bin	-0.5	0
bin	-0.43333333333333	0
bin	-0.36666666666667	0
bin	-0.3	0
bin	-0.23333333333333	0
bin	-0.16666666666667	0
bin	-0.1	0
bin	-0.033333333333333	698
bin	0.033333333333333	1
bin	0.1	1
bin	0.16666666666667	14
bin	0.23333333333333	1
bin	0.3	0
bin	0.36666666666667	0
bin	0.43333333333333	0
bin	0.5	0
bin	0.56666666666667	0
bin	0.63333333333333	0
bin	0.7	0
bin	0.76666666666667	0
bin	0.83333333333333	0
bin	0.9	0
bin	0.96666666666667	9
bin	1.0333333333333	0
bin	1.1	0
bin	1.1666666666667	0
bin	1.2333333333333	0
bin	1.3	0
bin	1.3666666666667	0
bin	1.4333333333333	0
bin	1.5	0
statistic scenarioPRJP2.node[9].wlan.radio 	minSNIR:histogram
field count 724
field mean 1233.8847780025
field stddev 5830.0690608349
field sum 893332.57927379
field sqrsum 25676826369.977
field min 0.88156887936925
field max 76246.505290825
attr source  minSNIR
attr title  "Min SNIR, histogram"
bin	-INF	0
bin	-297.31075835212	0
bin	-257.5281587198	0
bin	-217.74555908747	0
bin	-177.96295945515	0
bin	-138.18035982283	0
bin	-98.397760190502	0
bin	-58.615160558178	0
bin	-18.832560925854	97
bin	20.950038706469	8
bin	60.732638338793	2
bin	100.51523797112	71
bin	140.29783760344	251
bin	180.08043723576	45
bin	219.86303686809	36
bin	259.64563650041	93
bin	299.42823613274	3
bin	339.21083576506	7
bin	378.99343539738	3
bin	418.77603502971	2
bin	458.55863466203	10
bin	498.34123429436	4
bin	538.12383392668	0
bin	577.906433559	12
bin	617.68903319133	0
bin	657.47163282365	0
bin	697.25423245597	0
bin	737.0368320883	0
bin	776.81943172062	0
bin	816.60203135295	4
bin	856.38463098527	7
bin	896.16723061759	69
scalar scenarioPRJP2.node[9].lo0.lo 	droppedPkBitError:count 	0
attr interpolationmode  none
attr source  dropPkBitError
attr title  "packets dropped/bit error, count"
scalar scenarioPRJP2.node[9].lo0.lo 	droppedPkBitError:sum(packetBytes) 	0
attr interpolationmode  none
attr source  dropPkBitError
attr title  "packets dropped/bit error, sum(packetBytes)"
scalar scenarioPRJP2.node[9].lo0.lo 	rcvdPkFromHL:count 	0
attr interpolationmode  none
attr source  packetReceivedFromUpper
attr title  "packets received from higher layer, count"
scalar scenarioPRJP2.node[9].lo0.lo 	rcvdPkFromHL:sum(packetBytes) 	0
attr interpolationmode  none
attr source  packetReceivedFromUpper
attr title  "packets received from higher layer, sum(packetBytes)"
scalar scenarioPRJP2.node[9].lo0.lo 	passedUpPk:count 	0
attr interpolationmode  none
attr source  packetSentToUpper
attr title  "packets passed to higher layer, count"
scalar scenarioPRJP2.node[9].lo0.lo 	passedUpPk:sum(packetBytes) 	0
attr interpolationmode  none
attr source  packetSentToUpper
attr title  "packets passed to higher layer, sum(packetBytes)"
