version 2
run AODVRouting-Erlangen-0-20150415-17:04:04-5371
attr configname AODVRouting-Erlangen
attr datetime 20150415-17:04:04
attr experiment AODVRouting-Erlangen
attr inifile omnetpp.ini
attr iterationvars ""
attr iterationvars2 $repetition=0
attr measurement ""
attr network scenarioCM2
attr processid 5371
attr repetition 0
attr replication #0
attr resultdir results
attr runnumber 0
attr seedset 0

